  Compiling CUDA source file ..\source\FunctionsGeo3d_iker.h...
  Compiling CUDA source file ..\source\FunctionsMath_iker.h...
  Compiling CUDA source file ..\source\JSphGpu_NN_ker.cu...
  Compiling CUDA source file ..\source\JSphShifting_ker.cu...
  Compiling CUDA source file ..\source\JDsPips_ker.cu...
  Compiling CUDA source file ..\source\JCellDivGpuSingle_ker.cu...
  Compiling CUDA source file ..\source\JRelaxZone_ker.cu...
  Compiling CUDA source file ..\source\JDsAccInput_ker.cu...
  Compiling CUDA source file ..\source\JReduSum_ker.cu...
  Compiling CUDA source file ..\source\JDsGauge_ker.cu...
  Compiling CUDA source file ..\source\JCellDivGpu_ker.cu...
  Compiling CUDA source file ..\source\JSphGpuSimple_ker.cu...
  Skipping CUDA source file ..\source\JSphGpu_InOut_ker.cu (excluded from build).
  Compiling CUDA source file ..\source\JWaveOrder2_ker.cu...
  Compiling CUDA source file ..\source\JSphGpu_ker.cu...
  
  C:\Users\Zhitian Qiao\Desktop\DualSPHysics-master\src_mphase\DSPH_v5.0_NNewtonian\VS>"C:\Program Files\NVIDIA GPU Computing Toolkit\CUDA\v9.2\bin\nvcc.exe" -gencode=arch=compute_30,code=\"sm_30,compute_30\" --use-local-env -ccbin "E:\VS2015\VC\bin\x86_amd64" -x cu  -I"C:\Program Files\NVIDIA GPU Computing Toolkit\CUDA\v9.2\include" -I"C:\Program Files\NVIDIA GPU Computing Toolkit\CUDA\v9.2\include"     --keep-dir x64\ReleaseGPU -maxrregcount=0  --machine 64 --compile -cudart static      -Xcompiler "/EHsc /W1 /nologo /O2 /Fdx64\ReleaseGPU\vc140.pdb /FS /Zi  /MD " -o x64\ReleaseGPU\FunctionsGeo3d_iker.h.obj "C:\Users\Zhitian Qiao\Desktop\DualSPHysics-master\src_mphase\DSPH_v5.0_NNewtonian\source\FunctionsGeo3d_iker.h" 
  
  C:\Users\Zhitian Qiao\Desktop\DualSPHysics-master\src_mphase\DSPH_v5.0_NNewtonian\VS>"C:\Program Files\NVIDIA GPU Computing Toolkit\CUDA\v9.2\bin\nvcc.exe" -gencode=arch=compute_30,code=\"sm_30,compute_30\" --use-local-env -ccbin "E:\VS2015\VC\bin\x86_amd64" -x cu  -I"C:\Program Files\NVIDIA GPU Computing Toolkit\CUDA\v9.2\include" -I"C:\Program Files\NVIDIA GPU Computing Toolkit\CUDA\v9.2\include"     --keep-dir x64\ReleaseGPU -maxrregcount=0  --machine 64 --compile -cudart static      -Xcompiler "/EHsc /W1 /nologo /O2 /Fdx64\ReleaseGPU\vc140.pdb /FS /Zi  /MD " -o x64\ReleaseGPU\FunctionsMath_iker.h.obj "C:\Users\Zhitian Qiao\Desktop\DualSPHysics-master\src_mphase\DSPH_v5.0_NNewtonian\source\FunctionsMath_iker.h" 
  
  C:\Users\Zhitian Qiao\Desktop\DualSPHysics-master\src_mphase\DSPH_v5.0_NNewtonian\VS>"C:\Program Files\NVIDIA GPU Computing Toolkit\CUDA\v9.2\bin\nvcc.exe" -gencode=arch=compute_30,code=\"sm_30,compute_30\" --use-local-env -ccbin "E:\VS2015\VC\bin\x86_amd64" -x cu  -I"C:\Program Files\NVIDIA GPU Computing Toolkit\CUDA\v9.2\include" -I"C:\Program Files\NVIDIA GPU Computing Toolkit\CUDA\v9.2\include"     --keep-dir x64\ReleaseGPU -maxrregcount=0  --machine 64 --compile -cudart static      -Xcompiler "/EHsc /W1 /nologo /O2 /Fdx64\ReleaseGPU\vc140.pdb /FS /Zi  /MD " -o x64\ReleaseGPU\JDsPips_ker.cu.obj "C:\Users\Zhitian Qiao\Desktop\DualSPHysics-master\src_mphase\DSPH_v5.0_NNewtonian\source\JDsPips_ker.cu" 
  
  
  C:\Users\Zhitian Qiao\Desktop\DualSPHysics-master\src_mphase\DSPH_v5.0_NNewtonian\VS>"C:\Program Files\NVIDIA GPU Computing Toolkit\CUDA\v9.2\bin\nvcc.exe" -gencode=arch=compute_30,code=\"sm_30,compute_30\" --use-local-env -ccbin "E:\VS2015\VC\bin\x86_amd64" -x cu  -I"C:\Program Files\NVIDIA GPU Computing Toolkit\CUDA\v9.2\include" -I"C:\Program Files\NVIDIA GPU Computing Toolkit\CUDA\v9.2\include"     --keep-dir x64\ReleaseGPU -maxrregcount=0  --machine 64 --compile -cudart static      -Xcompiler "/EHsc /W1 /nologo /O2 /Fdx64\ReleaseGPU\vc140.pdb /FS /Zi  /MD " -o x64\ReleaseGPU\JRelaxZone_ker.cu.obj "C:\Users\Zhitian Qiao\Desktop\DualSPHysics-master\src_mphase\DSPH_v5.0_NNewtonian\source\JRelaxZone_ker.cu" 
  C:\Users\Zhitian Qiao\Desktop\DualSPHysics-master\src_mphase\DSPH_v5.0_NNewtonian\VS>"C:\Program Files\NVIDIA GPU Computing Toolkit\CUDA\v9.2\bin\nvcc.exe" -gencode=arch=compute_30,code=\"sm_30,compute_30\" --use-local-env -ccbin "E:\VS2015\VC\bin\x86_amd64" -x cu  -I"C:\Program Files\NVIDIA GPU Computing Toolkit\CUDA\v9.2\include" -I"C:\Program Files\NVIDIA GPU Computing Toolkit\CUDA\v9.2\include"     --keep-dir x64\ReleaseGPU -maxrregcount=0  --machine 64 --compile -cudart static      -Xcompiler "/EHsc /W1 /nologo /O2 /Fdx64\ReleaseGPU\vc140.pdb /FS /Zi  /MD " -o x64\ReleaseGPU\JDsAccInput_ker.cu.obj "C:\Users\Zhitian Qiao\Desktop\DualSPHysics-master\src_mphase\DSPH_v5.0_NNewtonian\source\JDsAccInput_ker.cu" 
  
  C:\Users\Zhitian Qiao\Desktop\DualSPHysics-master\src_mphase\DSPH_v5.0_NNewtonian\VS>"C:\Program Files\NVIDIA GPU Computing Toolkit\CUDA\v9.2\bin\nvcc.exe" -gencode=arch=compute_30,code=\"sm_30,compute_30\" --use-local-env -ccbin "E:\VS2015\VC\bin\x86_amd64" -x cu  -I"C:\Program Files\NVIDIA GPU Computing Toolkit\CUDA\v9.2\include" -I"C:\Program Files\NVIDIA GPU Computing Toolkit\CUDA\v9.2\include"     --keep-dir x64\ReleaseGPU -maxrregcount=0  --machine 64 --compile -cudart static      -Xcompiler "/EHsc /W1 /nologo /O2 /Fdx64\ReleaseGPU\vc140.pdb /FS /Zi  /MD " -o x64\ReleaseGPU\JDsGauge_ker.cu.obj "C:\Users\Zhitian Qiao\Desktop\DualSPHysics-master\src_mphase\DSPH_v5.0_NNewtonian\source\JDsGauge_ker.cu" 
  
  C:\Users\Zhitian Qiao\Desktop\DualSPHysics-master\src_mphase\DSPH_v5.0_NNewtonian\VS>"C:\Program Files\NVIDIA GPU Computing Toolkit\CUDA\v9.2\bin\nvcc.exe" -gencode=arch=compute_30,code=\"sm_30,compute_30\" --use-local-env -ccbin "E:\VS2015\VC\bin\x86_amd64" -x cu  -I"C:\Program Files\NVIDIA GPU Computing Toolkit\CUDA\v9.2\include" -I"C:\Program Files\NVIDIA GPU Computing Toolkit\CUDA\v9.2\include"     --keep-dir x64\ReleaseGPU -maxrregcount=0  --machine 64 --compile -cudart static      -Xcompiler "/EHsc /W1 /nologo /O2 /Fdx64\ReleaseGPU\vc140.pdb /FS /Zi  /MD " -o x64\ReleaseGPU\JCellDivGpuSingle_ker.cu.obj "C:\Users\Zhitian Qiao\Desktop\DualSPHysics-master\src_mphase\DSPH_v5.0_NNewtonian\source\JCellDivGpuSingle_ker.cu" 
  
  C:\Users\Zhitian Qiao\Desktop\DualSPHysics-master\src_mphase\DSPH_v5.0_NNewtonian\VS>"C:\Program Files\NVIDIA GPU Computing Toolkit\CUDA\v9.2\bin\nvcc.exe" -gencode=arch=compute_30,code=\"sm_30,compute_30\" --use-local-env -ccbin "E:\VS2015\VC\bin\x86_amd64" -x cu  -I"C:\Program Files\NVIDIA GPU Computing Toolkit\CUDA\v9.2\include" -I"C:\Program Files\NVIDIA GPU Computing Toolkit\CUDA\v9.2\include"     --keep-dir x64\ReleaseGPU -maxrregcount=0  --machine 64 --compile -cudart static      -Xcompiler "/EHsc /W1 /nologo /O2 /Fdx64\ReleaseGPU\vc140.pdb /FS /Zi  /MD " -o x64\ReleaseGPU\JSphGpuSimple_ker.cu.obj "C:\Users\Zhitian Qiao\Desktop\DualSPHysics-master\src_mphase\DSPH_v5.0_NNewtonian\source\JSphGpuSimple_ker.cu" 
  
  C:\Users\Zhitian Qiao\Desktop\DualSPHysics-master\src_mphase\DSPH_v5.0_NNewtonian\VS>"C:\Program Files\NVIDIA GPU Computing Toolkit\CUDA\v9.2\bin\nvcc.exe" -gencode=arch=compute_30,code=\"sm_30,compute_30\" --use-local-env -ccbin "E:\VS2015\VC\bin\x86_amd64" -x cu  -I"C:\Program Files\NVIDIA GPU Computing Toolkit\CUDA\v9.2\include" -I"C:\Program Files\NVIDIA GPU Computing Toolkit\CUDA\v9.2\include"     --keep-dir x64\ReleaseGPU -maxrregcount=0  --machine 64 --compile -cudart static      -Xcompiler "/EHsc /W1 /nologo /O2 /Fdx64\ReleaseGPU\vc140.pdb /FS /Zi  /MD " -o x64\ReleaseGPU\JSphGpu_NN_ker.cu.obj "C:\Users\Zhitian Qiao\Desktop\DualSPHysics-master\src_mphase\DSPH_v5.0_NNewtonian\source\JSphGpu_NN_ker.cu" 
  
  C:\Users\Zhitian Qiao\Desktop\DualSPHysics-master\src_mphase\DSPH_v5.0_NNewtonian\VS>"C:\Program Files\NVIDIA GPU Computing Toolkit\CUDA\v9.2\bin\nvcc.exe" -gencode=arch=compute_30,code=\"sm_30,compute_30\" --use-local-env -ccbin "E:\VS2015\VC\bin\x86_amd64" -x cu  -I"C:\Program Files\NVIDIA GPU Computing Toolkit\CUDA\v9.2\include" -I"C:\Program Files\NVIDIA GPU Computing Toolkit\CUDA\v9.2\include"     --keep-dir x64\ReleaseGPU -maxrregcount=0  --machine 64 --compile -cudart static      -Xcompiler "/EHsc /W1 /nologo /O2 /Fdx64\ReleaseGPU\vc140.pdb /FS /Zi  /MD " -o x64\ReleaseGPU\JCellDivGpu_ker.cu.obj "C:\Users\Zhitian Qiao\Desktop\DualSPHysics-master\src_mphase\DSPH_v5.0_NNewtonian\source\JCellDivGpu_ker.cu" 
  
  C:\Users\Zhitian Qiao\Desktop\DualSPHysics-master\src_mphase\DSPH_v5.0_NNewtonian\VS>"C:\Program Files\NVIDIA GPU Computing Toolkit\CUDA\v9.2\bin\nvcc.exe" -gencode=arch=compute_30,code=\"sm_30,compute_30\" --use-local-env -ccbin "E:\VS2015\VC\bin\x86_amd64" -x cu  -I"C:\Program Files\NVIDIA GPU Computing Toolkit\CUDA\v9.2\include" -I"C:\Program Files\NVIDIA GPU Computing Toolkit\CUDA\v9.2\include"     --keep-dir x64\ReleaseGPU -maxrregcount=0  --machine 64 --compile -cudart static      -Xcompiler "/EHsc /W1 /nologo /O2 /Fdx64\ReleaseGPU\vc140.pdb /FS /Zi  /MD " -o x64\ReleaseGPU\JReduSum_ker.cu.obj "C:\Users\Zhitian Qiao\Desktop\DualSPHysics-master\src_mphase\DSPH_v5.0_NNewtonian\source\JReduSum_ker.cu" 
  
  C:\Users\Zhitian Qiao\Desktop\DualSPHysics-master\src_mphase\DSPH_v5.0_NNewtonian\VS>"C:\Program Files\NVIDIA GPU Computing Toolkit\CUDA\v9.2\bin\nvcc.exe" -gencode=arch=compute_30,code=\"sm_30,compute_30\" --use-local-env -ccbin "E:\VS2015\VC\bin\x86_amd64" -x cu  -I"C:\Program Files\NVIDIA GPU Computing Toolkit\CUDA\v9.2\include" -I"C:\Program Files\NVIDIA GPU Computing Toolkit\CUDA\v9.2\include"     --keep-dir x64\ReleaseGPU -maxrregcount=0  --machine 64 --compile -cudart static      -Xcompiler "/EHsc /W1 /nologo /O2 /Fdx64\ReleaseGPU\vc140.pdb /FS /Zi  /MD " -o x64\ReleaseGPU\JSphShifting_ker.cu.obj "C:\Users\Zhitian Qiao\Desktop\DualSPHysics-master\src_mphase\DSPH_v5.0_NNewtonian\source\JSphShifting_ker.cu" 
  
  C:\Users\Zhitian Qiao\Desktop\DualSPHysics-master\src_mphase\DSPH_v5.0_NNewtonian\VS>"C:\Program Files\NVIDIA GPU Computing Toolkit\CUDA\v9.2\bin\nvcc.exe" -gencode=arch=compute_30,code=\"sm_30,compute_30\" --use-local-env -ccbin "E:\VS2015\VC\bin\x86_amd64" -x cu  -I"C:\Program Files\NVIDIA GPU Computing Toolkit\CUDA\v9.2\include" -I"C:\Program Files\NVIDIA GPU Computing Toolkit\CUDA\v9.2\include"     --keep-dir x64\ReleaseGPU -maxrregcount=0  --machine 64 --compile -cudart static      -Xcompiler "/EHsc /W1 /nologo /O2 /Fdx64\ReleaseGPU\vc140.pdb /FS /Zi  /MD " -o x64\ReleaseGPU\JWaveOrder2_ker.cu.obj "C:\Users\Zhitian Qiao\Desktop\DualSPHysics-master\src_mphase\DSPH_v5.0_NNewtonian\source\JWaveOrder2_ker.cu" 
  
  C:\Users\Zhitian Qiao\Desktop\DualSPHysics-master\src_mphase\DSPH_v5.0_NNewtonian\VS>"C:\Program Files\NVIDIA GPU Computing Toolkit\CUDA\v9.2\bin\nvcc.exe" -gencode=arch=compute_30,code=\"sm_30,compute_30\" --use-local-env -ccbin "E:\VS2015\VC\bin\x86_amd64" -x cu  -I"C:\Program Files\NVIDIA GPU Computing Toolkit\CUDA\v9.2\include" -I"C:\Program Files\NVIDIA GPU Computing Toolkit\CUDA\v9.2\include"     --keep-dir x64\ReleaseGPU -maxrregcount=0  --machine 64 --compile -cudart static      -Xcompiler "/EHsc /W1 /nologo /O2 /Fdx64\ReleaseGPU\vc140.pdb /FS /Zi  /MD " -o x64\ReleaseGPU\JSphGpu_ker.cu.obj "C:\Users\Zhitian Qiao\Desktop\DualSPHysics-master\src_mphase\DSPH_v5.0_NNewtonian\source\JSphGpu_ker.cu" 
c:\users\zhitian qiao\desktop\dualsphysics-master\src_mphase\dsph_v5.0_nnewtonian\source\JSphGpu_NN_ker.h(40): error : identifier "StInterParmsg" is undefined
C:/Users/Zhitian Qiao/Desktop/DualSPHysics-master/src_mphase/DSPH_v5.0_NNewtonian/source/JSphGpu_NN_ker.cu(78): error : identifier "CTE" is undefined
C:/Users/Zhitian Qiao/Desktop/DualSPHysics-master/src_mphase/DSPH_v5.0_NNewtonian/source/JSphGpu_NN_ker.cu(730): error : identifier "StInterParmsg" is undefined
C:/Users/Zhitian Qiao/Desktop/DualSPHysics-master/src_mphase/DSPH_v5.0_NNewtonian/source/JSphGpu_NN_ker.cu(1397): error : identifier "StInterParmsg" is undefined
C:/Users/Zhitian Qiao/Desktop/DualSPHysics-master/src_mphase/DSPH_v5.0_NNewtonian/source/JSphGpu_NN_ker.cu(1488): error : identifier "StInterParmsg" is undefined
C:/Users/Zhitian Qiao/Desktop/DualSPHysics-master/src_mphase/DSPH_v5.0_NNewtonian/source/JSphGpu_NN_ker.cu(1498): error : identifier "StInterParmsg" is undefined
C:/Users/Zhitian Qiao/Desktop/DualSPHysics-master/src_mphase/DSPH_v5.0_NNewtonian/source/JSphGpu_NN_ker.cu(1520): error : identifier "StInterParmsg" is undefined
C:/Users/Zhitian Qiao/Desktop/DualSPHysics-master/src_mphase/DSPH_v5.0_NNewtonian/source/JSphGpu_NN_ker.cu(1532): error : identifier "StInterParmsg" is undefined
C:/Users/Zhitian Qiao/Desktop/DualSPHysics-master/src_mphase/DSPH_v5.0_NNewtonian/source/JSphGpu_NN_ker.cu(1543): error : identifier "StInterParmsg" is undefined
  JSphGpu_NN_ker.cu
C:\Program Files (x86)\MSBuild\Microsoft.Cpp\v4.0\V140\BuildCustomizations\CUDA 9.2.targets(712,9): error MSB3721: The command ""C:\Program Files\NVIDIA GPU Computing Toolkit\CUDA\v9.2\bin\nvcc.exe" -gencode=arch=compute_30,code=\"sm_30,compute_30\" --use-local-env -ccbin "E:\VS2015\VC\bin\x86_amd64" -x cu  -I"C:\Program Files\NVIDIA GPU Computing Toolkit\CUDA\v9.2\include" -I"C:\Program Files\NVIDIA GPU Computing Toolkit\CUDA\v9.2\include"     --keep-dir x64\ReleaseGPU -maxrregcount=0  --machine 64 --compile -cudart static      -Xcompiler "/EHsc /W1 /nologo /O2 /Fdx64\ReleaseGPU\vc140.pdb /FS /Zi  /MD " -o x64\ReleaseGPU\JSphGpu_NN_ker.cu.obj "C:\Users\Zhitian Qiao\Desktop\DualSPHysics-master\src_mphase\DSPH_v5.0_NNewtonian\source\JSphGpu_NN_ker.cu"" exited with code 1.
  FunctionsGeo3d_iker.h
  FunctionsMath_iker.h
  JDsAccInput_ker.cu
  JSphShifting_ker.cu
  JReduSum_ker.cu
  JWaveOrder2_ker.cu
  JCellDivGpuSingle_ker.cu
  JDsPips_ker.cu
  JDsGauge_ker.cu
  JSphGpuSimple_ker.cu
  JRelaxZone_ker.cu
  JCellDivGpu_ker.cu
  JSphGpu_ker.cu
