     0>Search paths being used for $(MSBuildExtensionsPath) are C:\Program Files (x86)\Microsoft Visual Studio\2019\Community\MSBuild;$(MSBuildProgramFiles32)\MSBuild
       Trying to import C:\Program Files (x86)\Microsoft Visual Studio\2019\Community\MSBuild\$(MSBuildToolsVersion)\Microsoft.Common.props using extensions path C:\Program Files (x86)\Microsoft Visual Studio\2019\Community\MSBuild
       Property reassignment: $(MSBuildProjectExtensionsPath)="C:\Users\Zhitian Qiao\Desktop\DualSPHysics-master\src_mphase\DSPH_v5.0_NNewtonian\VS\obj\" (previous value: "obj\") at C:\Program Files (x86)\Microsoft Visual Studio\2019\Community\MSBuild\Current\Microsoft.Common.props (57,5)
       Search paths being used for $(MSBuildExtensionsPath) are C:\Program Files (x86)\Microsoft Visual Studio\2019\Community\MSBuild;$(MSBuildProgramFiles32)\MSBuild
       Trying to import C:\Program Files (x86)\Microsoft Visual Studio\2019\Community\MSBuild\$(MSBuildToolsVersion)\Imports\Microsoft.Common.props\ImportBefore\* using extensions path C:\Program Files (x86)\Microsoft Visual Studio\2019\Community\MSBuild
       Search paths being used for $(MSBuildExtensionsPath) are C:\Program Files (x86)\Microsoft Visual Studio\2019\Community\MSBuild;$(MSBuildProgramFiles32)\MSBuild
       The "Configuration" property is a global property, and cannot be modified.
       Search paths being used for $(MSBuildExtensionsPath) are C:\Program Files (x86)\Microsoft Visual Studio\2019\Community\MSBuild;$(MSBuildProgramFiles32)\MSBuild
       Search paths being used for $(MSBuildExtensionsPath) are C:\Program Files (x86)\Microsoft Visual Studio\2019\Community\MSBuild;$(MSBuildProgramFiles32)\MSBuild
       The "Configuration" property is a global property, and cannot be modified.
       Property reassignment: $(PlatformToolset)="v100" (previous value: "") at C:\Program Files (x86)\Microsoft Visual Studio\2019\Community\MSBuild\Microsoft\VC\v160\Platforms\x64\Platform.Default.props (29,5)
       The "LangID" property is a global property, and cannot be modified.
       The "SolutionDir" property is a global property, and cannot be modified.
       Property reassignment: $(PlatformToolset)="v142" (previous value: "v100") at C:\Users\Zhitian Qiao\Desktop\DualSPHysics-master\src_mphase\DSPH_v5.0_NNewtonian\VS\DualSPHysics5Re.vcxproj (67,5)
       Property reassignment: $(WindowsSDK_ExecutablePath_x86)="C:\Program Files (x86)\Windows Kits\10\bin\10.0.19041.0\x86;;C:\Program Files (x86)\Microsoft SDKs\Windows\v10.0A\bin\NETFX 4.8 Tools" (previous value: "C:\Program Files (x86)\Windows Kits\10\bin\10.0.19041.0\x86;") at C:\Program Files (x86)\Microsoft Visual Studio\2019\Community\MSBuild\Microsoft\VC\v160\Microsoft.Cpp.WindowsSDK.props (199,5)
       Property reassignment: $(WindowsSDK_ExecutablePath_x64)="C:\Program Files (x86)\Windows Kits\10\bin\10.0.19041.0\x64;;C:\Program Files (x86)\Microsoft SDKs\Windows\v10.0A\bin\NETFX 4.8 Tools\x64" (previous value: "C:\Program Files (x86)\Windows Kits\10\bin\10.0.19041.0\x64;") at C:\Program Files (x86)\Microsoft Visual Studio\2019\Community\MSBuild\Microsoft\VC\v160\Microsoft.Cpp.WindowsSDK.props (200,5)
       Property reassignment: $(TargetExt)=".exe" (previous value: "") at C:\Program Files (x86)\Microsoft Visual Studio\2019\Community\MSBuild\Microsoft\VC\v160\Microsoft.Cpp.Common.props (28,5)
       Property reassignment: $(VC_ExecutablePath_Loc)="C:\Program Files (x86)\Microsoft Visual Studio\2019\Community\VC\Tools\MSVC\14.29.30133\bin\HostX64\x64\1033;C:\Program Files (x86)\Microsoft Visual Studio\2019\Community\VC\Tools\MSVC\14.29.30133\bin\HostX64\x86\1033;;;" (previous value: "C:\Program Files (x86)\Microsoft Visual Studio\2019\Community\VC\Tools\MSVC\14.29.30133\bin\HostX64\x86\1033;;") at C:\Program Files (x86)\Microsoft Visual Studio\2019\Community\MSBuild\Microsoft\VC\v160\Microsoft.Cpp.Common.props (94,5)
       Property reassignment: $(VC_ExecutablePath_Loc)="C:\Program Files (x86)\Microsoft Visual Studio\2019\Community\VC\Tools\MSVC\14.29.30133\bin\HostX64\arm\1033;C:\Program Files (x86)\Microsoft Visual Studio\2019\Community\VC\Tools\MSVC\14.29.30133\bin\HostX64\x64\1033;C:\Program Files (x86)\Microsoft Visual Studio\2019\Community\VC\Tools\MSVC\14.29.30133\bin\HostX64\x86\1033;;;;" (previous value: "C:\Program Files (x86)\Microsoft Visual Studio\2019\Community\VC\Tools\MSVC\14.29.30133\bin\HostX64\x64\1033;C:\Program Files (x86)\Microsoft Visual Studio\2019\Community\VC\Tools\MSVC\14.29.30133\bin\HostX64\x86\1033;;;") at C:\Program Files (x86)\Microsoft Visual Studio\2019\Community\MSBuild\Microsoft\VC\v160\Microsoft.Cpp.Common.props (95,5)
       Property reassignment: $(VC_ExecutablePath_Loc)="C:\Program Files (x86)\Microsoft Visual Studio\2019\Community\VC\Tools\MSVC\14.29.30133\bin\HostX64\arm64\1033;C:\Program Files (x86)\Microsoft Visual Studio\2019\Community\VC\Tools\MSVC\14.29.30133\bin\HostX64\arm\1033;C:\Program Files (x86)\Microsoft Visual Studio\2019\Community\VC\Tools\MSVC\14.29.30133\bin\HostX64\x64\1033;C:\Program Files (x86)\Microsoft Visual Studio\2019\Community\VC\Tools\MSVC\14.29.30133\bin\HostX64\x86\1033;;;;;" (previous value: "C:\Program Files (x86)\Microsoft Visual Studio\2019\Community\VC\Tools\MSVC\14.29.30133\bin\HostX64\arm\1033;C:\Program Files (x86)\Microsoft Visual Studio\2019\Community\VC\Tools\MSVC\14.29.30133\bin\HostX64\x64\1033;C:\Program Files (x86)\Microsoft Visual Studio\2019\Community\VC\Tools\MSVC\14.29.30133\bin\HostX64\x86\1033;;;;") at C:\Program Files (x86)\Microsoft Visual Studio\2019\Community\MSBuild\Microsoft\VC\v160\Microsoft.Cpp.Common.props (96,5)
       Property reassignment: $(VC_ExecutablePath_Loc)="C:\Program Files (x86)\Microsoft Visual Studio\2019\Community\VC\Tools\MSVC\14.29.30133\bin\HostX86\x86\1033;C:\Program Files (x86)\Microsoft Visual Studio\2019\Community\VC\Tools\MSVC\14.29.30133\bin\HostX64\arm64\1033;C:\Program Files (x86)\Microsoft Visual Studio\2019\Community\VC\Tools\MSVC\14.29.30133\bin\HostX64\arm\1033;C:\Program Files (x86)\Microsoft Visual Studio\2019\Community\VC\Tools\MSVC\14.29.30133\bin\HostX64\x64\1033;C:\Program Files (x86)\Microsoft Visual Studio\2019\Community\VC\Tools\MSVC\14.29.30133\bin\HostX64\x86\1033;;;;;;" (previous value: "C:\Program Files (x86)\Microsoft Visual Studio\2019\Community\VC\Tools\MSVC\14.29.30133\bin\HostX64\arm64\1033;C:\Program Files (x86)\Microsoft Visual Studio\2019\Community\VC\Tools\MSVC\14.29.30133\bin\HostX64\arm\1033;C:\Program Files (x86)\Microsoft Visual Studio\2019\Community\VC\Tools\MSVC\14.29.30133\bin\HostX64\x64\1033;C:\Program Files (x86)\Microsoft Visual Studio\2019\Community\VC\Tools\MSVC\14.29.30133\bin\HostX64\x86\1033;;;;;") at C:\Program Files (x86)\Microsoft Visual Studio\2019\Community\MSBuild\Microsoft\VC\v160\Microsoft.Cpp.Common.props (97,5)
       Property reassignment: $(VC_ExecutablePath_Loc)="C:\Program Files (x86)\Microsoft Visual Studio\2019\Community\VC\Tools\MSVC\14.29.30133\bin\HostX86\x64\1033;C:\Program Files (x86)\Microsoft Visual Studio\2019\Community\VC\Tools\MSVC\14.29.30133\bin\HostX86\x86\1033;C:\Program Files (x86)\Microsoft Visual Studio\2019\Community\VC\Tools\MSVC\14.29.30133\bin\HostX64\arm64\1033;C:\Program Files (x86)\Microsoft Visual Studio\2019\Community\VC\Tools\MSVC\14.29.30133\bin\HostX64\arm\1033;C:\Program Files (x86)\Microsoft Visual Studio\2019\Community\VC\Tools\MSVC\14.29.30133\bin\HostX64\x64\1033;C:\Program Files (x86)\Microsoft Visual Studio\2019\Community\VC\Tools\MSVC\14.29.30133\bin\HostX64\x86\1033;;;;;;;" (previous value: "C:\Program Files (x86)\Microsoft Visual Studio\2019\Community\VC\Tools\MSVC\14.29.30133\bin\HostX86\x86\1033;C:\Program Files (x86)\Microsoft Visual Studio\2019\Community\VC\Tools\MSVC\14.29.30133\bin\HostX64\arm64\1033;C:\Program Files (x86)\Microsoft Visual Studio\2019\Community\VC\Tools\MSVC\14.29.30133\bin\HostX64\arm\1033;C:\Program Files (x86)\Microsoft Visual Studio\2019\Community\VC\Tools\MSVC\14.29.30133\bin\HostX64\x64\1033;C:\Program Files (x86)\Microsoft Visual Studio\2019\Community\VC\Tools\MSVC\14.29.30133\bin\HostX64\x86\1033;;;;;;") at C:\Program Files (x86)\Microsoft Visual Studio\2019\Community\MSBuild\Microsoft\VC\v160\Microsoft.Cpp.Common.props (98,5)
       Property reassignment: $(VC_ExecutablePath_Loc)="C:\Program Files (x86)\Microsoft Visual Studio\2019\Community\VC\Tools\MSVC\14.29.30133\bin\HostX86\arm64\1033;C:\Program Files (x86)\Microsoft Visual Studio\2019\Community\VC\Tools\MSVC\14.29.30133\bin\HostX86\x64\1033;C:\Program Files (x86)\Microsoft Visual Studio\2019\Community\VC\Tools\MSVC\14.29.30133\bin\HostX86\x86\1033;C:\Program Files (x86)\Microsoft Visual Studio\2019\Community\VC\Tools\MSVC\14.29.30133\bin\HostX64\arm64\1033;C:\Program Files (x86)\Microsoft Visual Studio\2019\Community\VC\Tools\MSVC\14.29.30133\bin\HostX64\arm\1033;C:\Program Files (x86)\Microsoft Visual Studio\2019\Community\VC\Tools\MSVC\14.29.30133\bin\HostX64\x64\1033;C:\Program Files (x86)\Microsoft Visual Studio\2019\Community\VC\Tools\MSVC\14.29.30133\bin\HostX64\x86\1033;;;;;;;;" (previous value: "C:\Program Files (x86)\Microsoft Visual Studio\2019\Community\VC\Tools\MSVC\14.29.30133\bin\HostX86\x64\1033;C:\Program Files (x86)\Microsoft Visual Studio\2019\Community\VC\Tools\MSVC\14.29.30133\bin\HostX86\x86\1033;C:\Program Files (x86)\Microsoft Visual Studio\2019\Community\VC\Tools\MSVC\14.29.30133\bin\HostX64\arm64\1033;C:\Program Files (x86)\Microsoft Visual Studio\2019\Community\VC\Tools\MSVC\14.29.30133\bin\HostX64\arm\1033;C:\Program Files (x86)\Microsoft Visual Studio\2019\Community\VC\Tools\MSVC\14.29.30133\bin\HostX64\x64\1033;C:\Program Files (x86)\Microsoft Visual Studio\2019\Community\VC\Tools\MSVC\14.29.30133\bin\HostX64\x86\1033;;;;;;;") at C:\Program Files (x86)\Microsoft Visual Studio\2019\Community\MSBuild\Microsoft\VC\v160\Microsoft.Cpp.Common.props (99,5)
       Property reassignment: $(RemoteDebuggerDeployCppRuntime)="true" (previous value: "false") at C:\Program Files (x86)\Microsoft Visual Studio\2019\Community\MSBuild\Microsoft\VC\v160\Microsoft.Cpp.Common.props (150,5)
       Property reassignment: $(MultiProcMaxCount)="0" (previous value: "") at C:\Program Files (x86)\Microsoft Visual Studio\2019\Community\MSBuild\Microsoft\VC\v160\Microsoft.Cpp.Common.props (207,5)
       Property reassignment: $(EspXtensions)="EnumIndex.dll;CppCoreCheck.dll;" (previous value: "CppCoreCheck.dll;") at C:\Program Files (x86)\Microsoft Visual Studio\2019\Community\MSBuild\Microsoft\VC\v160\Microsoft.CodeAnalysis.Extensions.props (21,5)
       Property reassignment: $(EspXtensions)="HResultCheck.dll;EnumIndex.dll;CppCoreCheck.dll;" (previous value: "EnumIndex.dll;CppCoreCheck.dll;") at C:\Program Files (x86)\Microsoft Visual Studio\2019\Community\MSBuild\Microsoft\VC\v160\Microsoft.CodeAnalysis.Extensions.props (24,5)
       Property reassignment: $(EspXtensions)="VariantClear.dll;HResultCheck.dll;EnumIndex.dll;CppCoreCheck.dll;" (previous value: "HResultCheck.dll;EnumIndex.dll;CppCoreCheck.dll;") at C:\Program Files (x86)\Microsoft Visual Studio\2019\Community\MSBuild\Microsoft\VC\v160\Microsoft.CodeAnalysis.Extensions.props (27,5)
       Property reassignment: $(EspXtensions)="ConcurrencyCheck.dll;VariantClear.dll;HResultCheck.dll;EnumIndex.dll;CppCoreCheck.dll;" (previous value: "VariantClear.dll;HResultCheck.dll;EnumIndex.dll;CppCoreCheck.dll;") at C:\Program Files (x86)\Microsoft Visual Studio\2019\Community\MSBuild\Microsoft\VC\v160\Microsoft.CodeAnalysis.Extensions.props (32,5)
       Property reassignment: $(MsvcAnalysisToolsPath)="C:\Program Files (x86)\Microsoft Visual Studio\2019\Community\VC\Tools\MSVC\14.29.30133\bin\HostX86\x64" (previous value: "C:\Program Files (x86)\Microsoft Visual Studio\2019\Community\VC\Tools\MSVC\14.29.30133\bin\HostX64\x86") at C:\Program Files (x86)\Microsoft Visual Studio\2019\Community\MSBuild\Microsoft\VC\v160\Microsoft.Cpp.Analysis.props (29,5)
       Property reassignment: $(VC_IncludePath)="C:\Program Files (x86)\Microsoft Visual Studio\2019\Community\VC\Tools\MSVC\14.29.30133\include;;C:\Program Files (x86)\Microsoft Visual Studio\2019\Community\VC\Tools\MSVC\14.29.30133\atlmfc\include;;C:\Program Files (x86)\Microsoft Visual Studio\2019\Community\VC\Auxiliary\VS\include;;C:\Program Files (x86)\Windows Kits\10\Include\10.0.19041.0\ucrt;;;C:\Program Files (x86)\Microsoft Visual Studio\2019\Community\VC\Auxiliary\VS\UnitTest\include" (previous value: "C:\Program Files (x86)\Microsoft Visual Studio\2019\Community\VC\Tools\MSVC\14.29.30133\include;;C:\Program Files (x86)\Microsoft Visual Studio\2019\Community\VC\Tools\MSVC\14.29.30133\atlmfc\include;;C:\Program Files (x86)\Microsoft Visual Studio\2019\Community\VC\Auxiliary\VS\include;;C:\Program Files (x86)\Windows Kits\10\Include\10.0.19041.0\ucrt;;") at C:\Program Files (x86)\Microsoft Visual Studio\2019\Community\MSBuild\Microsoft\VC\v160\Microsoft.Cpp.UnitTest.props (17,5)
       Property reassignment: $(VC_LibraryPath_x86)="C:\Program Files (x86)\Microsoft Visual Studio\2019\Community\VC\Tools\MSVC\14.29.30133\lib\x86;;C:\Program Files (x86)\Microsoft Visual Studio\2019\Community\VC\Tools\MSVC\14.29.30133\atlmfc\lib\x86;;C:\Program Files (x86)\Microsoft Visual Studio\2019\Community\VC\Auxiliary\VS\lib\x86;;C:\Program Files (x86)\Windows Kits\10\lib\10.0.19041.0\ucrt\x86;;;C:\Program Files (x86)\Microsoft Visual Studio\2019\Community\VC\Auxiliary\VS\UnitTest\lib" (previous value: "C:\Program Files (x86)\Microsoft Visual Studio\2019\Community\VC\Tools\MSVC\14.29.30133\lib\x86;;C:\Program Files (x86)\Microsoft Visual Studio\2019\Community\VC\Tools\MSVC\14.29.30133\atlmfc\lib\x86;;C:\Program Files (x86)\Microsoft Visual Studio\2019\Community\VC\Auxiliary\VS\lib\x86;;C:\Program Files (x86)\Windows Kits\10\lib\10.0.19041.0\ucrt\x86;;") at C:\Program Files (x86)\Microsoft Visual Studio\2019\Community\MSBuild\Microsoft\VC\v160\Microsoft.Cpp.UnitTest.props (19,5)
       Property reassignment: $(VC_LibraryPath_x64)="C:\Program Files (x86)\Microsoft Visual Studio\2019\Community\VC\Tools\MSVC\14.29.30133\lib\x64;;C:\Program Files (x86)\Microsoft Visual Studio\2019\Community\VC\Tools\MSVC\14.29.30133\atlmfc\lib\x64;;C:\Program Files (x86)\Microsoft Visual Studio\2019\Community\VC\Auxiliary\VS\lib\x64;;C:\Program Files (x86)\Windows Kits\10\lib\10.0.19041.0\ucrt\x64;;;C:\Program Files (x86)\Microsoft Visual Studio\2019\Community\VC\Auxiliary\VS\UnitTest\lib" (previous value: "C:\Program Files (x86)\Microsoft Visual Studio\2019\Community\VC\Tools\MSVC\14.29.30133\lib\x64;;C:\Program Files (x86)\Microsoft Visual Studio\2019\Community\VC\Tools\MSVC\14.29.30133\atlmfc\lib\x64;;C:\Program Files (x86)\Microsoft Visual Studio\2019\Community\VC\Auxiliary\VS\lib\x64;;C:\Program Files (x86)\Windows Kits\10\lib\10.0.19041.0\ucrt\x64;;") at C:\Program Files (x86)\Microsoft Visual Studio\2019\Community\MSBuild\Microsoft\VC\v160\Microsoft.Cpp.UnitTest.props (20,5)
       Property reassignment: $(VC_LibraryPath_ARM)="C:\Program Files (x86)\Microsoft Visual Studio\2019\Community\VC\Tools\MSVC\14.29.30133\lib\ARM;;C:\Program Files (x86)\Microsoft Visual Studio\2019\Community\VC\Tools\MSVC\14.29.30133\atlmfc\lib\ARM;;C:\Program Files (x86)\Microsoft Visual Studio\2019\Community\VC\Auxiliary\VS\lib\ARM;;C:\Program Files (x86)\Windows Kits\10\lib\10.0.19041.0\ucrt\arm;;;C:\Program Files (x86)\Microsoft Visual Studio\2019\Community\VC\Auxiliary\VS\UnitTest\lib" (previous value: "C:\Program Files (x86)\Microsoft Visual Studio\2019\Community\VC\Tools\MSVC\14.29.30133\lib\ARM;;C:\Program Files (x86)\Microsoft Visual Studio\2019\Community\VC\Tools\MSVC\14.29.30133\atlmfc\lib\ARM;;C:\Program Files (x86)\Microsoft Visual Studio\2019\Community\VC\Auxiliary\VS\lib\ARM;;C:\Program Files (x86)\Windows Kits\10\lib\10.0.19041.0\ucrt\arm;;") at C:\Program Files (x86)\Microsoft Visual Studio\2019\Community\MSBuild\Microsoft\VC\v160\Microsoft.Cpp.UnitTest.props (21,5)
       Property reassignment: $(_PropertySheetDisplayName)="Application" (previous value: "Core Windows Libraries") at C:\Program Files (x86)\Microsoft Visual Studio\2019\Community\MSBuild\Microsoft\VC\v160\Microsoft.Cpp.Application.props (15,5)
       Property reassignment: $(CudaToolkitDir)="C:\Program Files\NVIDIA GPU Computing Toolkit\CUDA\v11.1\" (previous value: "C:\Program Files\NVIDIA GPU Computing Toolkit\CUDA\v11.1") at C:\Program Files (x86)\Microsoft Visual Studio\2019\Community\MSBuild\Microsoft\VC\v160\BuildCustomizations\CUDA 11.1.props (25,9)
       Property reassignment: $(CudaIntDir)="x64\DebugGPU" (previous value: "x64\DebugGPU\") at C:\Program Files (x86)\Microsoft Visual Studio\2019\Community\MSBuild\Microsoft\VC\v160\BuildCustomizations\CUDA 11.1.props (66,9)
       The "SolutionExt" property is a global property, and cannot be modified.
       Property reassignment: $(ExtensionsToDeleteOnClean)="*.cdf;*.cache;*.obj;*.obj.enc;*.ilk;*.ipdb;*.iobj;*.resources;*.tlb;*.tli;*.tlh;*.tmp;*.rsp;*.pgc;*.pgd;*.meta;*.tlog;*.manifest;*.res;*.pch;*.exp;*.idb;*.rep;*.xdc;*.pdb;*_manifest.rc;*.bsc;*.sbr;*.xml;*.metagen;*.bi;C:\Users\Zhitian Qiao\Desktop\DualSPHysics-master\src_mphase\DSPH_v5.0_NNewtonian\VS\x64\DebugGPU\DualSPHysics.exe.manifest;C:\Users\Zhitian Qiao\Desktop\DualSPHysics-master\src_mphase\DSPH_v5.0_NNewtonian\VS\x64\DebugGPU\DualSPHysics.tlb;C:\Users\Zhitian Qiao\Desktop\DualSPHysics-master\src_mphase\DSPH_v5.0_NNewtonian\VS\x64\DebugGPU\DualSPHysics.pdb;C:\Users\Zhitian Qiao\Desktop\DualSPHysics-master\src_mphase\DSPH_v5.0_NNewtonian\VS\x64\DebugGPU\DualSPHysics.exe;C:\Users\Zhitian Qiao\Desktop\DualSPHysics-master\src_mphase\DSPH_v5.0_NNewtonian\VS\x64\DebugGPU\DualSPHysics.bsc;C:\Users\Zhitian Qiao\Desktop\DualSPHysics-master\src_mphase\DSPH_v5.0_NNewtonian\VS\x64\DebugGPU\DualSPHysics.ilk;C:\Users\Zhitian Qiao\Desktop\DualSPHysics-master\src_mphase\DSPH_v5.0_NNewtonian\VS\x64\DebugGPU\DualSPHysics.exe.intermediate.manifest;" (previous value: "*.cdf;*.cache;*.obj;*.obj.enc;*.ilk;*.ipdb;*.iobj;*.resources;*.tlb;*.tli;*.tlh;*.tmp;*.rsp;*.pgc;*.pgd;*.meta;*.tlog;*.manifest;*.res;*.pch;*.exp;*.idb;*.rep;*.xdc;*.pdb;*_manifest.rc;*.bsc;*.sbr;*.xml;*.metagen;*.bi") at C:\Program Files (x86)\Microsoft Visual Studio\2019\Community\MSBuild\Microsoft\VC\v160\Microsoft.CppCommon.targets (38,5)
       Search paths being used for $(MSBuildExtensionsPath) are C:\Program Files (x86)\Microsoft Visual Studio\2019\Community\MSBuild;$(MSBuildProgramFiles32)\MSBuild
       Search paths being used for $(MSBuildExtensionsPath) are C:\Program Files (x86)\Microsoft Visual Studio\2019\Community\MSBuild;$(MSBuildProgramFiles32)\MSBuild
       Trying to import C:\Program Files (x86)\Microsoft Visual Studio\2019\Community\MSBuild\$(MSBuildToolsVersion)\Microsoft.Common.targets\ImportBefore\* using extensions path C:\Program Files (x86)\Microsoft Visual Studio\2019\Community\MSBuild
       Search paths being used for $(MSBuildExtensionsPath) are C:\Program Files (x86)\Microsoft Visual Studio\2019\Community\MSBuild;$(MSBuildProgramFiles32)\MSBuild
       Search paths being used for $(MSBuildExtensionsPath) are C:\Program Files (x86)\Microsoft Visual Studio\2019\Community\MSBuild;$(MSBuildProgramFiles32)\MSBuild
       The "Configuration" property is a global property, and cannot be modified.
       Property reassignment: $(_DocumentationFileProduced)="false" (previous value: "true") at C:\Program Files (x86)\Microsoft Visual Studio\2019\Community\MSBuild\Current\Bin\Microsoft.Common.CurrentVersion.targets (186,5)
       The "DevEnvDir" property is a global property, and cannot be modified.
       The "SolutionName" property is a global property, and cannot be modified.
       The "SolutionFileName" property is a global property, and cannot be modified.
       The "SolutionPath" property is a global property, and cannot be modified.
       The "SolutionDir" property is a global property, and cannot be modified.
       The "SolutionExt" property is a global property, and cannot be modified.
       Property reassignment: $(AutoUnifyAssemblyReferences)="false" (previous value: "true") at C:\Program Files (x86)\Microsoft Visual Studio\2019\Community\MSBuild\Current\Bin\Microsoft.Common.CurrentVersion.targets (369,5)
       Property reassignment: $(ProcessorArchitecture)="amd64" (previous value: "x64") at C:\Program Files (x86)\Microsoft Visual Studio\2019\Community\MSBuild\Current\Bin\Microsoft.Common.CurrentVersion.targets (506,5)
       Property reassignment: $(DelaySign)="" (previous value: "false") at C:\Program Files (x86)\Microsoft Visual Studio\2019\Community\MSBuild\Current\Bin\Microsoft.Common.CurrentVersion.targets (558,5)
       Property reassignment: $(_SGenGenerateSerializationAssembliesConfig)="Auto" (previous value: "") at C:\Program Files (x86)\Microsoft Visual Studio\2019\Community\MSBuild\Current\Bin\Microsoft.Common.CurrentVersion.targets (3612,5)
       Property reassignment: $(_CodeAnalysisTreatWarningsAsErrors)="false" (previous value: "") at C:\Program Files (x86)\Microsoft Visual Studio\2019\Community\MSBuild\Microsoft\VisualStudio\v16.0\CodeAnalysis\Microsoft.CodeAnalysis.targets (125,5)
       Property reassignment: $(CAExcludePath)="C:\Program Files (x86)\Windows Kits\10\Include\10.0.19041.0\ucrt;;C:\Program Files (x86)\Windows Kits\10\Include\10.0.19041.0\um;C:\Program Files (x86)\Windows Kits\10\Include\10.0.19041.0\shared;C:\Program Files (x86)\Windows Kits\10\Include\10.0.19041.0\winrt;C:\Program Files (x86)\Windows Kits\10\Include\10.0.19041.0\cppwinrt;C:\Program Files (x86)\Windows Kits\NETFXSDK\4.8\Include\um;" (previous value: "C:\Program Files (x86)\Windows Kits\10\Include\10.0.19041.0\um;C:\Program Files (x86)\Windows Kits\10\Include\10.0.19041.0\shared;C:\Program Files (x86)\Windows Kits\10\Include\10.0.19041.0\winrt;C:\Program Files (x86)\Windows Kits\10\Include\10.0.19041.0\cppwinrt;C:\Program Files (x86)\Windows Kits\NETFXSDK\4.8\Include\um;") at C:\Program Files (x86)\Microsoft Visual Studio\2019\Community\MSBuild\Microsoft\VisualStudio\v16.0\CodeAnalysis\Microsoft.CodeAnalysis.targets (235,5)
       Property reassignment: $(CAExcludePath)="C:\Program Files (x86)\Microsoft Visual Studio\2019\Community\VC\Tools\MSVC\14.29.30133\include;C:\Program Files (x86)\Windows Kits\10\Include\10.0.19041.0\ucrt;;C:\Program Files (x86)\Windows Kits\10\Include\10.0.19041.0\um;C:\Program Files (x86)\Windows Kits\10\Include\10.0.19041.0\shared;C:\Program Files (x86)\Windows Kits\10\Include\10.0.19041.0\winrt;C:\Program Files (x86)\Windows Kits\10\Include\10.0.19041.0\cppwinrt;C:\Program Files (x86)\Windows Kits\NETFXSDK\4.8\Include\um;" (previous value: "C:\Program Files (x86)\Windows Kits\10\Include\10.0.19041.0\ucrt;;C:\Program Files (x86)\Windows Kits\10\Include\10.0.19041.0\um;C:\Program Files (x86)\Windows Kits\10\Include\10.0.19041.0\shared;C:\Program Files (x86)\Windows Kits\10\Include\10.0.19041.0\winrt;C:\Program Files (x86)\Windows Kits\10\Include\10.0.19041.0\cppwinrt;C:\Program Files (x86)\Windows Kits\NETFXSDK\4.8\Include\um;") at C:\Program Files (x86)\Microsoft Visual Studio\2019\Community\MSBuild\Microsoft\VisualStudio\v16.0\CodeAnalysis\Microsoft.CodeAnalysis.targets (236,5)
       Property reassignment: $(CAExcludePath)="C:\Program Files (x86)\Microsoft Visual Studio\2019\Community\VC\Tools\MSVC\14.29.30133\atlmfc\include;C:\Program Files (x86)\Microsoft Visual Studio\2019\Community\VC\Tools\MSVC\14.29.30133\include;C:\Program Files (x86)\Windows Kits\10\Include\10.0.19041.0\ucrt;;C:\Program Files (x86)\Windows Kits\10\Include\10.0.19041.0\um;C:\Program Files (x86)\Windows Kits\10\Include\10.0.19041.0\shared;C:\Program Files (x86)\Windows Kits\10\Include\10.0.19041.0\winrt;C:\Program Files (x86)\Windows Kits\10\Include\10.0.19041.0\cppwinrt;C:\Program Files (x86)\Windows Kits\NETFXSDK\4.8\Include\um;" (previous value: "C:\Program Files (x86)\Microsoft Visual Studio\2019\Community\VC\Tools\MSVC\14.29.30133\include;C:\Program Files (x86)\Windows Kits\10\Include\10.0.19041.0\ucrt;;C:\Program Files (x86)\Windows Kits\10\Include\10.0.19041.0\um;C:\Program Files (x86)\Windows Kits\10\Include\10.0.19041.0\shared;C:\Program Files (x86)\Windows Kits\10\Include\10.0.19041.0\winrt;C:\Program Files (x86)\Windows Kits\10\Include\10.0.19041.0\cppwinrt;C:\Program Files (x86)\Windows Kits\NETFXSDK\4.8\Include\um;") at C:\Program Files (x86)\Microsoft Visual Studio\2019\Community\MSBuild\Microsoft\VisualStudio\v16.0\CodeAnalysis\Microsoft.CodeAnalysis.targets (237,5)
       Property reassignment: $(PrepareForBuildDependsOn)=";GetFrameworkPaths;GetReferenceAssemblyPaths;AssignLinkMetadata;SetCABuildNativeEnvironmentVariables" (previous value: ";GetFrameworkPaths;GetReferenceAssemblyPaths;AssignLinkMetadata") at C:\Program Files (x86)\Microsoft Visual Studio\2019\Community\MSBuild\Microsoft\VisualStudio\v16.0\CodeAnalysis\Microsoft.CodeAnalysis.targets (240,5)
       Search paths being used for $(MSBuildExtensionsPath) are C:\Program Files (x86)\Microsoft Visual Studio\2019\Community\MSBuild;$(MSBuildProgramFiles32)\MSBuild
       Property reassignment: $(ResolveReferencesDependsOn)="
             
             BeforeResolveReferences;
             AssignProjectConfiguration;
             ResolveProjectReferences;
             FindInvalidProjectReferences;
             ResolveNativeReferences;
             ResolveAssemblyReferences;
             GenerateBindingRedirects;
             ResolveComReferences;
             AfterResolveReferences
           ;
             ImplicitlyExpandDesignTimeFacades
           " (previous value: "
             BeforeResolveReferences;
             AssignProjectConfiguration;
             ResolveProjectReferences;
             FindInvalidProjectReferences;
             ResolveNativeReferences;
             ResolveAssemblyReferences;
             GenerateBindingRedirects;
             ResolveComReferences;
             AfterResolveReferences
           ") at C:\Program Files (x86)\Microsoft Visual Studio\2019\Community\MSBuild\Current\Bin\Microsoft.NETFramework.CurrentVersion.targets (75,5)
       Property reassignment: $(PrepareResourceNamesDependsOn)="
                           AssignWinFXEmbeddedResource;
                           
             AssignTargetPaths;
             SplitResourcesByCulture;
             CreateManifestResourceNames;
             CreateCustomManifestResourceNames
           
             " (previous value: "
             AssignTargetPaths;
             SplitResourcesByCulture;
             CreateManifestResourceNames;
             CreateCustomManifestResourceNames
           ") at C:\Windows\Microsoft.NET\Framework\v4.0.30319\Microsoft.WinFx.targets (97,7)
       Property reassignment: $(PrepareResourcesDependsOn)="
                       MarkupCompilePass1;
                       AfterMarkupCompilePass1;
                       MarkupCompilePass2ForMainAssembly;
                       FileClassification;
                       MainResourcesGeneration;
                       
             ;
             PrepareResourceNames;
             ResGen;
             CompileLicxFiles
           
             " (previous value: "
             ;
             PrepareResourceNames;
             ResGen;
             CompileLicxFiles
           ") at C:\Windows\Microsoft.NET\Framework\v4.0.30319\Microsoft.WinFx.targets (108,7)
       Property reassignment: $(CompileDependsOn)="
               
             ResolveReferences;
             ResolveKeySource;
             SetWin32ManifestProperties;
             FindReferenceAssembliesForReferences;
             _GenerateCompileInputs;
             BeforeCompile;
             _TimeStampBeforeCompile;
             _GenerateCompileDependencyCache;
             CoreCompile;
             _TimeStampAfterCompile;
             AfterCompile;
           ;
               _AfterCompileWinFXInternal
           " (previous value: "
             ResolveReferences;
             ResolveKeySource;
             SetWin32ManifestProperties;
             FindReferenceAssembliesForReferences;
             _GenerateCompileInputs;
             BeforeCompile;
             _TimeStampBeforeCompile;
             _GenerateCompileDependencyCache;
             CoreCompile;
             _TimeStampAfterCompile;
             AfterCompile;
           ") at C:\Windows\Microsoft.NET\Framework\v4.0.30319\Microsoft.WinFx.targets (184,5)
       Property reassignment: $(PublishBuildDependsOn)="
                   BuildOnlySettings;
                   PrepareForBuild;
                   ResolveReferences;
                   PrepareResources;
                   ResolveKeySource;
                   PrepareResourcesForSatelliteAssemblies;
                   GenerateSerializationAssemblies;
                   CreateSatelliteAssemblies;
               " (previous value: "
             BuildOnlySettings;
             PrepareForBuild;
             ResolveReferences;
             PrepareResources;
             ResolveKeySource;
             GenerateSerializationAssemblies;
             CreateSatelliteAssemblies;
           ") at C:\Windows\Microsoft.NET\Framework\v4.0.30319\Microsoft.WinFx.targets (813,9)
       Property reassignment: $(BuildDependsOn)="
             EntityDeploy;
             
             BeforeBuild;
             CoreBuild;
             AfterBuild
           
           " (previous value: "
             BeforeBuild;
             CoreBuild;
             AfterBuild
           ") at C:\Windows\Microsoft.NET\Framework\v4.0.30319\Microsoft.Data.Entity.targets (35,5)
       Property reassignment: $(CleanDependsOn)="
             
             BeforeClean;
             UnmanagedUnregistration;
             CoreClean;
             CleanReferencedProjects;
             CleanPublishFolder;
             AfterClean
           ;
             EntityClean;
           " (previous value: "
             BeforeClean;
             UnmanagedUnregistration;
             CoreClean;
             CleanReferencedProjects;
             CleanPublishFolder;
             AfterClean
           ") at C:\Windows\Microsoft.NET\Framework\v4.0.30319\Microsoft.Data.Entity.targets (42,5)
       Search paths being used for $(MSBuildExtensionsPath) are C:\Program Files (x86)\Microsoft Visual Studio\2019\Community\MSBuild;$(MSBuildProgramFiles32)\MSBuild
       Property reassignment: $(PrepareResourcesDependsOn)="
             XamlMarkupCompilePass1;
             XamlMarkupCompilePass2;
             
                       MarkupCompilePass1;
                       AfterMarkupCompilePass1;
                       MarkupCompilePass2ForMainAssembly;
                       FileClassification;
                       MainResourcesGeneration;
                       
             ;
             PrepareResourceNames;
             ResGen;
             CompileLicxFiles
           
              
           " (previous value: "
                       MarkupCompilePass1;
                       AfterMarkupCompilePass1;
                       MarkupCompilePass2ForMainAssembly;
                       FileClassification;
                       MainResourcesGeneration;
                       
             ;
             PrepareResourceNames;
             ResGen;
             CompileLicxFiles
           
             ") at C:\Windows\Microsoft.NET\Framework\v4.0.30319\Microsoft.Xaml.targets (35,5)
       Property reassignment: $(CoreCompileDependsOn)="
               DesignTimeXamlMarkupCompilation;
               
                 DesignTimeMarkupCompilation;
                 
             
           " (previous value: "
                 DesignTimeMarkupCompilation;
                 
             ") at C:\Windows\Microsoft.NET\Framework\v4.0.30319\Microsoft.Xaml.targets (76,5)
       Property reassignment: $(ResolveReferencesDependsOn)="
             
             
             BeforeResolveReferences;
             AssignProjectConfiguration;
             ResolveProjectReferences;
             FindInvalidProjectReferences;
             ResolveNativeReferences;
             ResolveAssemblyReferences;
             GenerateBindingRedirects;
             ResolveComReferences;
             AfterResolveReferences
           ;
             ImplicitlyExpandDesignTimeFacades
           ;
             ResolveTestReferences
           " (previous value: "
             
             BeforeResolveReferences;
             AssignProjectConfiguration;
             ResolveProjectReferences;
             FindInvalidProjectReferences;
             ResolveNativeReferences;
             ResolveAssemblyReferences;
             GenerateBindingRedirects;
             ResolveComReferences;
             AfterResolveReferences
           ;
             ImplicitlyExpandDesignTimeFacades
           ") at C:\Program Files (x86)\Microsoft Visual Studio\2019\Community\MSBuild\Microsoft\VisualStudio\v16.0\TeamTest\Microsoft.TeamTest.targets (4,5)
       Search paths being used for $(MSBuildExtensionsPath) are C:\Program Files (x86)\Microsoft Visual Studio\2019\Community\MSBuild;$(MSBuildProgramFiles32)\MSBuild
       Trying to import C:\Program Files (x86)\Microsoft Visual Studio\2019\Community\MSBuild\$(MSBuildToolsVersion)\Microsoft.Common.targets\ImportAfter\* using extensions path C:\Program Files (x86)\Microsoft Visual Studio\2019\Community\MSBuild
       Property reassignment: $(ProjectLockFile)="obj\project.assets.json" (previous value: "C:\Users\Zhitian Qiao\Desktop\DualSPHysics-master\src_mphase\DSPH_v5.0_NNewtonian\VS\obj\project.assets.json") at C:\Program Files (x86)\Microsoft Visual Studio\2019\Community\MSBuild\Microsoft\NuGet\16.0\Microsoft.NuGet.targets (74,5)
       Property reassignment: $(ResolveAssemblyReferencesDependsOn)="
             ResolveProjectReferences;
             FindInvalidProjectReferences;
             GetFrameworkPaths;
             GetReferenceAssemblyPaths;
             PrepareForBuild;
             ResolveSDKReferences;
             ExpandSDKReferences;
           ;ResolveNuGetPackageAssets" (previous value: "
             ResolveProjectReferences;
             FindInvalidProjectReferences;
             GetFrameworkPaths;
             GetReferenceAssemblyPaths;
             PrepareForBuild;
             ResolveSDKReferences;
             ExpandSDKReferences;
           ") at C:\Program Files (x86)\Microsoft Visual Studio\2019\Community\MSBuild\Microsoft\NuGet\16.0\Microsoft.NuGet.targets (185,5)
       Property reassignment: $(PrepareResourcesDependsOn)="ResolveNuGetPackageAssets;
             XamlMarkupCompilePass1;
             XamlMarkupCompilePass2;
             
                       MarkupCompilePass1;
                       AfterMarkupCompilePass1;
                       MarkupCompilePass2ForMainAssembly;
                       FileClassification;
                       MainResourcesGeneration;
                       
             ;
             PrepareResourceNames;
             ResGen;
             CompileLicxFiles
           
              
           " (previous value: "
             XamlMarkupCompilePass1;
             XamlMarkupCompilePass2;
             
                       MarkupCompilePass1;
                       AfterMarkupCompilePass1;
                       MarkupCompilePass2ForMainAssembly;
                       FileClassification;
                       MainResourcesGeneration;
                       
             ;
             PrepareResourceNames;
             ResGen;
             CompileLicxFiles
           
              
           ") at C:\Program Files (x86)\Microsoft Visual Studio\2019\Community\MSBuild\Microsoft\NuGet\16.0\Microsoft.NuGet.targets (186,5)
       Property reassignment: $(_HandlePackageFileConflictsAfter)="ResolveNuGetPackageAssets;ResolveNuGetPackageAssetsNonAOT" (previous value: "ResolveNuGetPackageAssets") at C:\Program Files (x86)\Microsoft Visual Studio\2019\Community\MSBuild\Microsoft\NuGet\16.0\Microsoft.NuGet.targets (267,5)
       Property reassignment: $(DebugType)="" (previous value: "none") at C:\Program Files (x86)\Microsoft Visual Studio\2019\Community\MSBuild\Microsoft\VC\v160\Microsoft.BuildSteps.Targets (37,5)
       Property reassignment: $(BuildDependsOn)="
             _PrepareForBuild;
             
             ResolveReferences;
             PrepareForBuild;
             InitializeBuildStatus;
             BuildGenerateSources;
             BuildCompile;
             BuildLink;
           ;
             AfterBuild;
             IncrementalClean;
             FinalizeBuildStatus;
           " (previous value: "
             EntityDeploy;
             
             BeforeBuild;
             CoreBuild;
             AfterBuild
           
           ") at C:\Program Files (x86)\Microsoft Visual Studio\2019\Community\MSBuild\Microsoft\VC\v160\Microsoft.BuildSteps.Targets (119,5)
       Property reassignment: $(RebuildDependsOn)="
             _PrepareForRebuild;
             
             BeforeRebuild;
             Clean;
             Build;
             AfterRebuild;
           ;
           " (previous value: "
             BeforeRebuild;
             Clean;
             Build;
             AfterRebuild;
           ") at C:\Program Files (x86)\Microsoft Visual Studio\2019\Community\MSBuild\Microsoft\VC\v160\Microsoft.BuildSteps.Targets (127,5)
       Property reassignment: $(CleanDependsOn)="
             _PrepareForClean;
             
             
             BeforeClean;
             UnmanagedUnregistration;
             CoreClean;
             CleanReferencedProjects;
             CleanPublishFolder;
             AfterClean
           ;
             EntityClean;
           ;
           " (previous value: "
             
             BeforeClean;
             UnmanagedUnregistration;
             CoreClean;
             CleanReferencedProjects;
             CleanPublishFolder;
             AfterClean
           ;
             EntityClean;
           ") at C:\Program Files (x86)\Microsoft Visual Studio\2019\Community\MSBuild\Microsoft\VC\v160\Microsoft.BuildSteps.Targets (132,5)
       Property reassignment: $(BeforeBuildGenerateSourcesTargets)="
             
             ;
             BeforeBuildGenerateSources;
           ;
           " (previous value: "
             ;
             BeforeBuildGenerateSources;
           ") at C:\Program Files (x86)\Microsoft Visual Studio\2019\Community\MSBuild\Microsoft\VC\v160\Microsoft.CppBuild.targets (61,5)
       Property reassignment: $(AfterBuildGenerateSourcesTargets)="
             
             ;
             AfterBuildGenerateSources;
           ;
             AfterBuildGenerateSourcesEvent;
           " (previous value: "
             ;
             AfterBuildGenerateSources;
           ") at C:\Program Files (x86)\Microsoft Visual Studio\2019\Community\MSBuild\Microsoft\VC\v160\Microsoft.CppBuild.targets (72,5)
       Property reassignment: $(BuildGenerateSourcesAction)="_BuildGenerateSourcesAction" (previous value: "Build") at C:\Program Files (x86)\Microsoft Visual Studio\2019\Community\MSBuild\Microsoft\VC\v160\Microsoft.CppBuild.targets (142,5)
       Property reassignment: $(BuildCompileAction)="_BuildCompileAction" (previous value: "Build") at C:\Program Files (x86)\Microsoft Visual Studio\2019\Community\MSBuild\Microsoft\VC\v160\Microsoft.CppBuild.targets (143,5)
       Property reassignment: $(BuildLinkAction)="_BuildLinkAction" (previous value: "Build") at C:\Program Files (x86)\Microsoft Visual Studio\2019\Community\MSBuild\Microsoft\VC\v160\Microsoft.CppBuild.targets (144,5)
       Property reassignment: $(GetReferenceAssemblyPathsDependsOn)="_PrepareForReferenceResolution;
               ;
               GetWinFXPath
           " (previous value: "
               ;
               GetWinFXPath
           ") at C:\Program Files (x86)\Microsoft Visual Studio\2019\Community\MSBuild\Microsoft\VC\v160\Microsoft.CppBuild.targets (149,5)
       Property reassignment: $(DetermineProjectTypeTargets)="_PrepareForReferenceResolution;
             ;
             AddExternalIncludDirectoriesToPaths
           " (previous value: "
             ;
             AddExternalIncludDirectoriesToPaths
           ") at C:\Program Files (x86)\Microsoft Visual Studio\2019\Community\MSBuild\Microsoft\VC\v160\Microsoft.CppBuild.targets (251,5)
       Property reassignment: $(ResolveReferencesDependsOn)="_PrepareForReferenceResolution;ComputeCrtSDKReference;
             
             
             BeforeResolveReferences;
             AssignProjectConfiguration;
             ResolveProjectReferences;
             FindInvalidProjectReferences;
             ResolveNativeReferences;
             ResolveAssemblyReferences;
             GenerateBindingRedirects;
             ResolveComReferences;
             AfterResolveReferences
           ;
             ImplicitlyExpandDesignTimeFacades
           ;
             ResolveTestReferences
           " (previous value: "
             
             
             BeforeResolveReferences;
             AssignProjectConfiguration;
             ResolveProjectReferences;
             FindInvalidProjectReferences;
             ResolveNativeReferences;
             ResolveAssemblyReferences;
             GenerateBindingRedirects;
             ResolveComReferences;
             AfterResolveReferences
           ;
             ImplicitlyExpandDesignTimeFacades
           ;
             ResolveTestReferences
           ") at C:\Program Files (x86)\Microsoft Visual Studio\2019\Community\MSBuild\Microsoft\VC\v160\Microsoft.CppBuild.targets (311,5)
       Property reassignment: $(ResolveAssemblyReferencesDependsOn)="_PrepareForReferenceResolution;
             ResolveProjectReferences;
             FindInvalidProjectReferences;
             GetFrameworkPaths;
             GetReferenceAssemblyPaths;
             PrepareForBuild;
             ResolveSDKReferences;
             ExpandSDKReferences;
           ;ResolveNuGetPackageAssets" (previous value: "
             ResolveProjectReferences;
             FindInvalidProjectReferences;
             GetFrameworkPaths;
             GetReferenceAssemblyPaths;
             PrepareForBuild;
             ResolveSDKReferences;
             ExpandSDKReferences;
           ;ResolveNuGetPackageAssets") at C:\Program Files (x86)\Microsoft Visual Studio\2019\Community\MSBuild\Microsoft\VC\v160\Microsoft.CppBuild.targets (312,5)
       Property reassignment: $(ResolveSDKReferencesDependsOn)="_PrepareForReferenceResolution;ComputeCrtSDKReference;
             GetInstalledSDKLocations
           " (previous value: "
             GetInstalledSDKLocations
           ") at C:\Program Files (x86)\Microsoft Visual Studio\2019\Community\MSBuild\Microsoft\VC\v160\Microsoft.CppBuild.targets (313,5)
       Property reassignment: $(ComputeCompileInputsTargets)="
             
             ;
             GenerateTargetFrameworkMonikerAttribute;
           ;
             ComputeMIDLGeneratedCompileInputs;
           " (previous value: "
             ;
             GenerateTargetFrameworkMonikerAttribute;
           ") at C:\Program Files (x86)\Microsoft Visual Studio\2019\Community\MSBuild\Microsoft\VC\v160\Microsoft.CppBuild.targets (612,5)
       Property reassignment: $(ComputeLinkInputsTargets)="
             
             ;
             ComputeRCGeneratedLinkInputs;
           ;
             ComputeManifestGeneratedLinkerInputs;
           " (previous value: "
             ;
             ComputeRCGeneratedLinkInputs;
           ") at C:\Program Files (x86)\Microsoft Visual Studio\2019\Community\MSBuild\Microsoft\VC\v160\Microsoft.CppBuild.targets (925,5)
       Property reassignment: $(GetTargetPathDependsOn)="_PrepareForReferenceResolution;GetResolvedWinMD;" (previous value: "") at C:\Program Files (x86)\Microsoft Visual Studio\2019\Community\MSBuild\Microsoft\VC\v160\Microsoft.CppBuild.targets (1095,5)
       Property reassignment: $(ComputeCompileInputsTargets)="
             
             
             ;
             GenerateTargetFrameworkMonikerAttribute;
           ;
             ComputeMIDLGeneratedCompileInputs;
           ;
             ComputeCLInputPDBName;
             ComputeReferenceCLInput;
             WarnCompileDuplicatedFilename
           " (previous value: "
             
             ;
             GenerateTargetFrameworkMonikerAttribute;
           ;
             ComputeMIDLGeneratedCompileInputs;
           ") at C:\Program Files (x86)\Microsoft Visual Studio\2019\Community\MSBuild\Microsoft\VC\v160\Microsoft.CppBuild.targets (1121,5)
       Property reassignment: $(ComputeLinkInputsTargets)="
             
             
             ;
             ComputeRCGeneratedLinkInputs;
           ;
             ComputeManifestGeneratedLinkerInputs;
           ;
             ComputeCustomBuildOutput;
           " (previous value: "
             
             ;
             ComputeRCGeneratedLinkInputs;
           ;
             ComputeManifestGeneratedLinkerInputs;
           ") at C:\Program Files (x86)\Microsoft Visual Studio\2019\Community\MSBuild\Microsoft\VC\v160\Microsoft.CppBuild.targets (1173,5)
       Property reassignment: $(ComputeLibInputsTargets)="
             
             ;
             ComputeRCGeneratedLibInputs;
           ;
             ComputeCustomBuildOutput;
           " (previous value: "
             ;
             ComputeRCGeneratedLibInputs;
           ") at C:\Program Files (x86)\Microsoft Visual Studio\2019\Community\MSBuild\Microsoft\VC\v160\Microsoft.CppBuild.targets (1180,5)
       Property reassignment: $(ComputeImpLibInputsTargets)="
             
             
             ;
             ComputeRCGeneratedLibInputs;
           ;
             ComputeRCGeneratedImpLibInputs;
           ;
             ComputeCustomBuildOutput;
           " (previous value: "
             
             ;
             ComputeRCGeneratedLibInputs;
           ;
             ComputeRCGeneratedImpLibInputs;
           ") at C:\Program Files (x86)\Microsoft Visual Studio\2019\Community\MSBuild\Microsoft\VC\v160\Microsoft.CppBuild.targets (1187,5)
       Property reassignment: $(ComputeLinkInputsTargets)="
             
             
             
             ;
             ComputeRCGeneratedLinkInputs;
           ;
             ComputeManifestGeneratedLinkerInputs;
           ;
             ComputeCustomBuildOutput;
           ;
             ComputeCLGeneratedLinkInputs;
           " (previous value: "
             
             
             ;
             ComputeRCGeneratedLinkInputs;
           ;
             ComputeManifestGeneratedLinkerInputs;
           ;
             ComputeCustomBuildOutput;
           ") at C:\Program Files (x86)\Microsoft Visual Studio\2019\Community\MSBuild\Microsoft\VC\v160\Microsoft.CppBuild.targets (1247,5)
       Property reassignment: $(ComputeLibInputsTargets)="
             
             
             ;
             ComputeRCGeneratedLibInputs;
           ;
             ComputeCustomBuildOutput;
           ;
             ComputeCLGeneratedLibInputs;
           " (previous value: "
             
             ;
             ComputeRCGeneratedLibInputs;
           ;
             ComputeCustomBuildOutput;
           ") at C:\Program Files (x86)\Microsoft Visual Studio\2019\Community\MSBuild\Microsoft\VC\v160\Microsoft.CppBuild.targets (1262,5)
       Property reassignment: $(ComputeImpLibInputsTargets)="
             
             
             
             ;
             ComputeRCGeneratedLibInputs;
           ;
             ComputeRCGeneratedImpLibInputs;
           ;
             ComputeCustomBuildOutput;
           ;
             ComputeCLGeneratedImpLibInputs;
           " (previous value: "
             
             
             ;
             ComputeRCGeneratedLibInputs;
           ;
             ComputeRCGeneratedImpLibInputs;
           ;
             ComputeCustomBuildOutput;
           ") at C:\Program Files (x86)\Microsoft Visual Studio\2019\Community\MSBuild\Microsoft\VC\v160\Microsoft.CppBuild.targets (1277,5)
       Property reassignment: $(ComputeLinkInputsTargets)="
             
             
             
             
             ;
             ComputeRCGeneratedLinkInputs;
           ;
             ComputeManifestGeneratedLinkerInputs;
           ;
             ComputeCustomBuildOutput;
           ;
             ComputeCLGeneratedLinkInputs;
           ;
             ComputeLinkInputsFromProject;
           " (previous value: "
             
             
             
             ;
             ComputeRCGeneratedLinkInputs;
           ;
             ComputeManifestGeneratedLinkerInputs;
           ;
             ComputeCustomBuildOutput;
           ;
             ComputeCLGeneratedLinkInputs;
           ") at C:\Program Files (x86)\Microsoft Visual Studio\2019\Community\MSBuild\Microsoft\VC\v160\Microsoft.CppBuild.targets (1308,5)
       Property reassignment: $(ComputeLibInputsTargets)="
             
             
             
             ;
             ComputeRCGeneratedLibInputs;
           ;
             ComputeCustomBuildOutput;
           ;
             ComputeCLGeneratedLibInputs;
           ;
             ComputeLibInputsFromProject;
           " (previous value: "
             
             
             ;
             ComputeRCGeneratedLibInputs;
           ;
             ComputeCustomBuildOutput;
           ;
             ComputeCLGeneratedLibInputs;
           ") at C:\Program Files (x86)\Microsoft Visual Studio\2019\Community\MSBuild\Microsoft\VC\v160\Microsoft.CppBuild.targets (1326,5)
       Property reassignment: $(ComputeImpLibInputsTargets)="
             
             
             
             
             ;
             ComputeRCGeneratedLibInputs;
           ;
             ComputeRCGeneratedImpLibInputs;
           ;
             ComputeCustomBuildOutput;
           ;
             ComputeCLGeneratedImpLibInputs;
           ;
             ComputeImpLibInputsFromProject;
           " (previous value: "
             
             
             
             ;
             ComputeRCGeneratedLibInputs;
           ;
             ComputeRCGeneratedImpLibInputs;
           ;
             ComputeCustomBuildOutput;
           ;
             ComputeCLGeneratedImpLibInputs;
           ") at C:\Program Files (x86)\Microsoft Visual Studio\2019\Community\MSBuild\Microsoft\VC\v160\Microsoft.CppBuild.targets (1344,5)
       Property reassignment: $(ComputeLinkInputsTargets)="
             
             
             
             
             
             ;
             ComputeRCGeneratedLinkInputs;
           ;
             ComputeManifestGeneratedLinkerInputs;
           ;
             ComputeCustomBuildOutput;
           ;
             ComputeCLGeneratedLinkInputs;
           ;
             ComputeLinkInputsFromProject;
           ;
             ComputeReferenceLinkInputs;
           " (previous value: "
             
             
             
             
             ;
             ComputeRCGeneratedLinkInputs;
           ;
             ComputeManifestGeneratedLinkerInputs;
           ;
             ComputeCustomBuildOutput;
           ;
             ComputeCLGeneratedLinkInputs;
           ;
             ComputeLinkInputsFromProject;
           ") at C:\Program Files (x86)\Microsoft Visual Studio\2019\Community\MSBuild\Microsoft\VC\v160\Microsoft.CppBuild.targets (1488,5)
       Property reassignment: $(ComputeLibInputsTargets)="
             
             
             
             
             ;
             ComputeRCGeneratedLibInputs;
           ;
             ComputeCustomBuildOutput;
           ;
             ComputeCLGeneratedLibInputs;
           ;
             ComputeLibInputsFromProject;
           ;
             ComputeReferenceLibInputs;
           " (previous value: "
             
             
             
             ;
             ComputeRCGeneratedLibInputs;
           ;
             ComputeCustomBuildOutput;
           ;
             ComputeCLGeneratedLibInputs;
           ;
             ComputeLibInputsFromProject;
           ") at C:\Program Files (x86)\Microsoft Visual Studio\2019\Community\MSBuild\Microsoft\VC\v160\Microsoft.CppBuild.targets (1526,5)
       Property reassignment: $(ComputeLibInputsTargets)="
             ComputeLibAdditionalOptions;
             
             
             
             
             
             ;
             ComputeRCGeneratedLibInputs;
           ;
             ComputeCustomBuildOutput;
           ;
             ComputeCLGeneratedLibInputs;
           ;
             ComputeLibInputsFromProject;
           ;
             ComputeReferenceLibInputs;
           
           " (previous value: "
             
             
             
             
             ;
             ComputeRCGeneratedLibInputs;
           ;
             ComputeCustomBuildOutput;
           ;
             ComputeCLGeneratedLibInputs;
           ;
             ComputeLibInputsFromProject;
           ;
             ComputeReferenceLibInputs;
           ") at C:\Program Files (x86)\Microsoft Visual Studio\2019\Community\MSBuild\Microsoft\VC\v160\Microsoft.CppBuild.targets (1583,5)
       Property reassignment: $(GetProjectInfoForReferenceDependsOn)="
             
             ;
             AddPublicIncludeDirectoriesToProjectsInfoForReference;
           ;
             AddPublicBMIsToProjectsInfoForReference;
             AddDeployRecipeFileToProjectsInfoForReference;
             AddLibrariesToProjectsInfoForReference;
           " (previous value: "
             ;
             AddPublicIncludeDirectoriesToProjectsInfoForReference;
           ") at C:\Program Files (x86)\Microsoft Visual Studio\2019\Community\MSBuild\Microsoft\VC\v160\Microsoft.CppBuild.targets (1770,5)
       Property reassignment: $(DocumentationProjectOutputGroupDependsOn)="ResolvedXDCMake;ComputeCLCompileGeneratedXDCFiles" (previous value: "") at C:\Program Files (x86)\Microsoft Visual Studio\2019\Community\MSBuild\Microsoft\VC\v160\Microsoft.CppBuild.targets (2157,5)
       Property reassignment: $(ContentFilesProjectOutputGroupDependsOn)="PrepareForBuild;AssignTargetPaths;PrepareForBuild;AssignTargetPaths;MakeDirsForFxc" (previous value: "PrepareForBuild;AssignTargetPaths") at C:\Program Files (x86)\Microsoft Visual Studio\2019\Community\MSBuild\Microsoft\VC\v160\Microsoft.CppBuild.targets (2223,5)
       Property reassignment: $(ComputeCompileInputsTargets)="
             
             
             
             ;
             GenerateTargetFrameworkMonikerAttribute;
           ;
             ComputeMIDLGeneratedCompileInputs;
           ;
             ComputeCLInputPDBName;
             ComputeReferenceCLInput;
             WarnCompileDuplicatedFilename
           ;
             ;
             FixupCLCompileOptions;
           " (previous value: "
             
             
             ;
             GenerateTargetFrameworkMonikerAttribute;
           ;
             ComputeMIDLGeneratedCompileInputs;
           ;
             ComputeCLInputPDBName;
             ComputeReferenceCLInput;
             WarnCompileDuplicatedFilename
           ") at C:\Program Files (x86)\Microsoft Visual Studio\2019\Community\MSBuild\Microsoft\VC\v160\Microsoft.CppCommon.targets (302,5)
       Property reassignment: $(BuildingProject)="true" (previous value: "false") at C:\Program Files (x86)\Microsoft Visual Studio\2019\Community\MSBuild\Microsoft\VC\v160\Microsoft.CppCommon.targets (1989,5)
       Property reassignment: $(ContentFilesProjectOutputGroupDependsOn)="PrepareForBuild;AssignTargetPaths;PrepareForBuild;AssignTargetPaths;MakeDirsForFxc;_CreateCopyFileItems;" (previous value: "PrepareForBuild;AssignTargetPaths;PrepareForBuild;AssignTargetPaths;MakeDirsForFxc") at C:\Program Files (x86)\Microsoft Visual Studio\2019\Community\MSBuild\Microsoft\VC\v160\Microsoft.CppCommon.targets (2516,5)
       Property reassignment: $(PrepareForBuildDependsOn)="_CheckWindowsSDKInstalled;;GetFrameworkPaths;GetReferenceAssemblyPaths;AssignLinkMetadata;SetCABuildNativeEnvironmentVariables" (previous value: ";GetFrameworkPaths;GetReferenceAssemblyPaths;AssignLinkMetadata;SetCABuildNativeEnvironmentVariables") at C:\Program Files (x86)\Microsoft Visual Studio\2019\Community\MSBuild\Microsoft\VC\v160\Microsoft.Cpp.WindowsSDK.targets (16,5)
       Property reassignment: $(CleanDependsOn)="
             
             _PrepareForClean;
             
             
             BeforeClean;
             UnmanagedUnregistration;
             CoreClean;
             CleanReferencedProjects;
             CleanPublishFolder;
             AfterClean
           ;
             EntityClean;
           ;
           ;
             CppClean
           " (previous value: "
             _PrepareForClean;
             
             
             BeforeClean;
             UnmanagedUnregistration;
             CoreClean;
             CleanReferencedProjects;
             CleanPublishFolder;
             AfterClean
           ;
             EntityClean;
           ;
           ") at C:\Program Files (x86)\Microsoft Visual Studio\2019\Community\MSBuild\Microsoft\VC\v160\Microsoft.CppClean.targets (22,5)
       Property reassignment: $(CppCleanDependsOn)="
             BeforeCppClean;
             ;
             CoreCppClean;
             AfterCppClean;
           ;PGInstrumentedClean" (previous value: "
             BeforeCppClean;
             ;
             CoreCppClean;
             AfterCppClean;
           ") at C:\Program Files (x86)\Microsoft Visual Studio\2019\Community\MSBuild\Microsoft\VC\v160\Microsoft.CppClean.targets (92,5)
       Property reassignment: $(BuildDependsOn)="SetTelemetryEnvironmentVariables;
             _PrepareForBuild;
             
             ResolveReferences;
             PrepareForBuild;
             InitializeBuildStatus;
             BuildGenerateSources;
             BuildCompile;
             BuildLink;
           ;
             AfterBuild;
             IncrementalClean;
             FinalizeBuildStatus;
           " (previous value: "
             _PrepareForBuild;
             
             ResolveReferences;
             PrepareForBuild;
             InitializeBuildStatus;
             BuildGenerateSources;
             BuildCompile;
             BuildLink;
           ;
             AfterBuild;
             IncrementalClean;
             FinalizeBuildStatus;
           ") at C:\Program Files (x86)\Microsoft Visual Studio\2019\Community\MSBuild\Microsoft\VC\v160\Microsoft.Cpp.DesignTime.targets (540,5)
       Property reassignment: $(RebuildDependsOn)="SetTelemetryEnvironmentVariables;
             _PrepareForRebuild;
             
             BeforeRebuild;
             Clean;
             Build;
             AfterRebuild;
           ;
           " (previous value: "
             _PrepareForRebuild;
             
             BeforeRebuild;
             Clean;
             Build;
             AfterRebuild;
           ;
           ") at C:\Program Files (x86)\Microsoft Visual Studio\2019\Community\MSBuild\Microsoft\VC\v160\Microsoft.Cpp.DesignTime.targets (541,5)
       Property reassignment: $(ComputeLinkInputsTargets)="
                   
             
             
             
             
             
             ;
             ComputeRCGeneratedLinkInputs;
           ;
             ComputeManifestGeneratedLinkerInputs;
           ;
             ComputeCustomBuildOutput;
           ;
             ComputeCLGeneratedLinkInputs;
           ;
             ComputeLinkInputsFromProject;
           ;
             ComputeReferenceLinkInputs;
           ;
                   ComputeCudaCompileOutput
               " (previous value: "
             
             
             
             
             
             ;
             ComputeRCGeneratedLinkInputs;
           ;
             ComputeManifestGeneratedLinkerInputs;
           ;
             ComputeCustomBuildOutput;
           ;
             ComputeCLGeneratedLinkInputs;
           ;
             ComputeLinkInputsFromProject;
           ;
             ComputeReferenceLinkInputs;
           ") at C:\Program Files (x86)\Microsoft Visual Studio\2019\Community\MSBuild\Microsoft\VC\v160\BuildCustomizations\CUDA 11.1.targets (903,9)
       Property reassignment: $(ComputeLibInputsTargets)="
                   
             ComputeLibAdditionalOptions;
             
             
             
             
             
             ;
             ComputeRCGeneratedLibInputs;
           ;
             ComputeCustomBuildOutput;
           ;
             ComputeCLGeneratedLibInputs;
           ;
             ComputeLibInputsFromProject;
           ;
             ComputeReferenceLibInputs;
           
           ;
                   ComputeCudaCompileOutput;
                   ComputeCudaLinkOutput
               " (previous value: "
             ComputeLibAdditionalOptions;
             
             
             
             
             
             ;
             ComputeRCGeneratedLibInputs;
           ;
             ComputeCustomBuildOutput;
           ;
             ComputeCLGeneratedLibInputs;
           ;
             ComputeLibInputsFromProject;
           ;
             ComputeReferenceLibInputs;
           
           ") at C:\Program Files (x86)\Microsoft Visual Studio\2019\Community\MSBuild\Microsoft\VC\v160\BuildCustomizations\CUDA 11.1.targets (908,9)
       Property reassignment: $(CppCleanDependsOn)="
                   
             BeforeCppClean;
             ;
             CoreCppClean;
             AfterCppClean;
           ;PGInstrumentedClean;
                   CudaClean
               " (previous value: "
             BeforeCppClean;
             ;
             CoreCppClean;
             AfterCppClean;
           ;PGInstrumentedClean") at C:\Program Files (x86)\Microsoft Visual Studio\2019\Community\MSBuild\Microsoft\VC\v160\BuildCustomizations\CUDA 11.1.targets (948,9)
       Overriding target "GetFrameworkPaths" in project "C:\Program Files (x86)\Microsoft Visual Studio\2019\Community\MSBuild\Current\Bin\Microsoft.Common.CurrentVersion.targets" with target "GetFrameworkPaths" from project "C:\Program Files (x86)\Microsoft Visual Studio\2019\Community\MSBuild\Current\Bin\Microsoft.NETFramework.CurrentVersion.targets".
       Overriding target "SatelliteDllsProjectOutputGroup" in project "C:\Program Files (x86)\Microsoft Visual Studio\2019\Community\MSBuild\Current\Bin\Microsoft.Common.CurrentVersion.targets" with target "SatelliteDllsProjectOutputGroup" from project "C:\Windows\Microsoft.NET\Framework\v4.0.30319\Microsoft.WinFx.targets".
       Overriding target "GenerateTargetFrameworkMonikerAttribute" in project "C:\Program Files (x86)\Microsoft Visual Studio\2019\Community\MSBuild\Current\Bin\Microsoft.Common.CurrentVersion.targets" with target "GenerateTargetFrameworkMonikerAttribute" from project "C:\Program Files (x86)\Microsoft Visual Studio\2019\Community\MSBuild\Microsoft\VC\v160\Microsoft.BuildSteps.Targets".
       Overriding target "Build" in project "C:\Program Files (x86)\Microsoft Visual Studio\2019\Community\MSBuild\Current\Bin\Microsoft.Common.CurrentVersion.targets" with target "Build" from project "C:\Program Files (x86)\Microsoft Visual Studio\2019\Community\MSBuild\Microsoft\VC\v160\Microsoft.BuildSteps.Targets".
       Overriding target "Rebuild" in project "C:\Program Files (x86)\Microsoft Visual Studio\2019\Community\MSBuild\Current\Bin\Microsoft.Common.CurrentVersion.targets" with target "Rebuild" from project "C:\Program Files (x86)\Microsoft Visual Studio\2019\Community\MSBuild\Microsoft\VC\v160\Microsoft.BuildSteps.Targets".
       Overriding target "AfterBuild" in project "C:\Program Files (x86)\Microsoft Visual Studio\2019\Community\MSBuild\Current\Bin\Microsoft.Common.CurrentVersion.targets" with target "AfterBuild" from project "C:\Program Files (x86)\Microsoft Visual Studio\2019\Community\MSBuild\Microsoft\VC\v160\Microsoft.BuildSteps.Targets".
       Overriding target "PrepareForBuild" in project "C:\Program Files (x86)\Microsoft Visual Studio\2019\Community\MSBuild\Current\Bin\Microsoft.Common.CurrentVersion.targets" with target "PrepareForBuild" from project "C:\Program Files (x86)\Microsoft Visual Studio\2019\Community\MSBuild\Microsoft\VC\v160\Microsoft.CppBuild.targets".
       Overriding target "GetTargetPath" in project "C:\Program Files (x86)\Microsoft Visual Studio\2019\Community\MSBuild\Current\Bin\Microsoft.Common.CurrentVersion.targets" with target "GetTargetPath" from project "C:\Program Files (x86)\Microsoft Visual Studio\2019\Community\MSBuild\Microsoft\VC\v160\Microsoft.CppBuild.targets".
       Overriding target "ComputeIntermediateSatelliteAssemblies" in project "C:\Program Files (x86)\Microsoft Visual Studio\2019\Community\MSBuild\Current\Bin\Microsoft.Common.CurrentVersion.targets" with target "ComputeIntermediateSatelliteAssemblies" from project "C:\Program Files (x86)\Microsoft Visual Studio\2019\Community\MSBuild\Microsoft\VC\v160\Microsoft.CppBuild.targets".
       Overriding target "ClCompile" in project "C:\Program Files (x86)\Microsoft Visual Studio\2019\Community\MSBuild\Microsoft\VC\v160\Microsoft.CppBuild.targets" with target "ClCompile" from project "C:\Program Files (x86)\Microsoft Visual Studio\2019\Community\MSBuild\Microsoft\VC\v160\Microsoft.CppBuild.targets".
       Overriding target "ResourceCompile" in project "C:\Program Files (x86)\Microsoft Visual Studio\2019\Community\MSBuild\Microsoft\VC\v160\Microsoft.CppBuild.targets" with target "ResourceCompile" from project "C:\Program Files (x86)\Microsoft Visual Studio\2019\Community\MSBuild\Microsoft\VC\v160\Microsoft.CppBuild.targets".
       Overriding target "Lib" in project "C:\Program Files (x86)\Microsoft Visual Studio\2019\Community\MSBuild\Microsoft\VC\v160\Microsoft.CppBuild.targets" with target "Lib" from project "C:\Program Files (x86)\Microsoft Visual Studio\2019\Community\MSBuild\Microsoft\VC\v160\Microsoft.CppBuild.targets".
       Overriding target "Link" in project "C:\Program Files (x86)\Microsoft Visual Studio\2019\Community\MSBuild\Microsoft\VC\v160\Microsoft.CppBuild.targets" with target "Link" from project "C:\Program Files (x86)\Microsoft Visual Studio\2019\Community\MSBuild\Microsoft\VC\v160\Microsoft.CppBuild.targets".
       Overriding target "AllProjectOutputGroups" in project "C:\Program Files (x86)\Microsoft Visual Studio\2019\Community\MSBuild\Current\Bin\Microsoft.Common.CurrentVersion.targets" with target "AllProjectOutputGroups" from project "C:\Program Files (x86)\Microsoft Visual Studio\2019\Community\MSBuild\Microsoft\VC\v160\Microsoft.CppBuild.targets".
       Overriding target "BuiltProjectOutputGroup" in project "C:\Program Files (x86)\Microsoft Visual Studio\2019\Community\MSBuild\Current\Bin\Microsoft.Common.CurrentVersion.targets" with target "BuiltProjectOutputGroup" from project "C:\Program Files (x86)\Microsoft Visual Studio\2019\Community\MSBuild\Microsoft\VC\v160\Microsoft.CppBuild.targets".
       Overriding target "DebugSymbolsProjectOutputGroup" in project "C:\Program Files (x86)\Microsoft Visual Studio\2019\Community\MSBuild\Current\Bin\Microsoft.Common.CurrentVersion.targets" with target "DebugSymbolsProjectOutputGroup" from project "C:\Program Files (x86)\Microsoft Visual Studio\2019\Community\MSBuild\Microsoft\VC\v160\Microsoft.CppBuild.targets".
       Overriding target "DocumentationProjectOutputGroup" in project "C:\Program Files (x86)\Microsoft Visual Studio\2019\Community\MSBuild\Current\Bin\Microsoft.Common.CurrentVersion.targets" with target "DocumentationProjectOutputGroup" from project "C:\Program Files (x86)\Microsoft Visual Studio\2019\Community\MSBuild\Microsoft\VC\v160\Microsoft.CppBuild.targets".
       Overriding target "SourceFilesProjectOutputGroup" in project "C:\Program Files (x86)\Microsoft Visual Studio\2019\Community\MSBuild\Current\Bin\Microsoft.Common.CurrentVersion.targets" with target "SourceFilesProjectOutputGroup" from project "C:\Program Files (x86)\Microsoft Visual Studio\2019\Community\MSBuild\Microsoft\VC\v160\Microsoft.CppBuild.targets".
       Overriding target "ContentFilesProjectOutputGroup" in project "C:\Program Files (x86)\Microsoft Visual Studio\2019\Community\MSBuild\Current\Bin\Microsoft.Common.CurrentVersion.targets" with target "ContentFilesProjectOutputGroup" from project "C:\Program Files (x86)\Microsoft Visual Studio\2019\Community\MSBuild\Microsoft\VC\v160\Microsoft.CppBuild.targets".
       Overriding target "AllProjectOutputGroupsDependencies" in project "C:\Program Files (x86)\Microsoft Visual Studio\2019\Community\MSBuild\Current\Bin\Microsoft.Common.CurrentVersion.targets" with target "AllProjectOutputGroupsDependencies" from project "C:\Program Files (x86)\Microsoft Visual Studio\2019\Community\MSBuild\Microsoft\VC\v160\Microsoft.CppBuild.targets".
       Overriding target "BuiltProjectOutputGroupDependencies" in project "C:\Program Files (x86)\Microsoft Visual Studio\2019\Community\MSBuild\Current\Bin\Microsoft.Common.CurrentVersion.targets" with target "BuiltProjectOutputGroupDependencies" from project "C:\Program Files (x86)\Microsoft Visual Studio\2019\Community\MSBuild\Microsoft\VC\v160\Microsoft.CppBuild.targets".
       Overriding target "DebugSymbolsProjectOutputGroupDependencies" in project "C:\Program Files (x86)\Microsoft Visual Studio\2019\Community\MSBuild\Current\Bin\Microsoft.Common.CurrentVersion.targets" with target "DebugSymbolsProjectOutputGroupDependencies" from project "C:\Program Files (x86)\Microsoft Visual Studio\2019\Community\MSBuild\Microsoft\VC\v160\Microsoft.CppBuild.targets".
       Overriding target "DocumentationProjectOutputGroupDependencies" in project "C:\Program Files (x86)\Microsoft Visual Studio\2019\Community\MSBuild\Current\Bin\Microsoft.Common.CurrentVersion.targets" with target "DocumentationProjectOutputGroupDependencies" from project "C:\Program Files (x86)\Microsoft Visual Studio\2019\Community\MSBuild\Microsoft\VC\v160\Microsoft.CppBuild.targets".
       Overriding target "PreBuildEvent" in project "C:\Program Files (x86)\Microsoft Visual Studio\2019\Community\MSBuild\Current\Bin\Microsoft.Common.CurrentVersion.targets" with target "PreBuildEvent" from project "C:\Program Files (x86)\Microsoft Visual Studio\2019\Community\MSBuild\Microsoft\VC\v160\Microsoft.CppCommon.targets".
       Overriding target "PostBuildEvent" in project "C:\Program Files (x86)\Microsoft Visual Studio\2019\Community\MSBuild\Current\Bin\Microsoft.Common.CurrentVersion.targets" with target "PostBuildEvent" from project "C:\Program Files (x86)\Microsoft Visual Studio\2019\Community\MSBuild\Microsoft\VC\v160\Microsoft.CppCommon.targets".
       Overriding target "ClCompile" in project "C:\Program Files (x86)\Microsoft Visual Studio\2019\Community\MSBuild\Microsoft\VC\v160\Microsoft.CppBuild.targets" with target "ClCompile" from project "C:\Program Files (x86)\Microsoft Visual Studio\2019\Community\MSBuild\Microsoft\VC\v160\Microsoft.CppCommon.targets".
       Overriding target "Link" in project "C:\Program Files (x86)\Microsoft Visual Studio\2019\Community\MSBuild\Microsoft\VC\v160\Microsoft.CppBuild.targets" with target "Link" from project "C:\Program Files (x86)\Microsoft Visual Studio\2019\Community\MSBuild\Microsoft\VC\v160\Microsoft.CppCommon.targets".
       Overriding target "Lib" in project "C:\Program Files (x86)\Microsoft Visual Studio\2019\Community\MSBuild\Microsoft\VC\v160\Microsoft.CppBuild.targets" with target "Lib" from project "C:\Program Files (x86)\Microsoft Visual Studio\2019\Community\MSBuild\Microsoft\VC\v160\Microsoft.CppCommon.targets".
       Overriding target "ImpLib" in project "C:\Program Files (x86)\Microsoft Visual Studio\2019\Community\MSBuild\Microsoft\VC\v160\Microsoft.CppBuild.targets" with target "ImpLib" from project "C:\Program Files (x86)\Microsoft Visual Studio\2019\Community\MSBuild\Microsoft\VC\v160\Microsoft.CppCommon.targets".
       Overriding target "Midl" in project "C:\Program Files (x86)\Microsoft Visual Studio\2019\Community\MSBuild\Microsoft\VC\v160\Microsoft.CppBuild.targets" with target "Midl" from project "C:\Program Files (x86)\Microsoft Visual Studio\2019\Community\MSBuild\Microsoft\VC\v160\Microsoft.CppCommon.targets".
       Overriding target "ResourceCompile" in project "C:\Program Files (x86)\Microsoft Visual Studio\2019\Community\MSBuild\Microsoft\VC\v160\Microsoft.CppBuild.targets" with target "ResourceCompile" from project "C:\Program Files (x86)\Microsoft Visual Studio\2019\Community\MSBuild\Microsoft\VC\v160\Microsoft.CppCommon.targets".
       Overriding target "BeforeResGen" in project "C:\Program Files (x86)\Microsoft Visual Studio\2019\Community\MSBuild\Current\Bin\Microsoft.Common.CurrentVersion.targets" with target "BeforeResGen" from project "C:\Program Files (x86)\Microsoft Visual Studio\2019\Community\MSBuild\Microsoft\VC\v160\Microsoft.CppCommon.targets".
       Overriding target "ResGen" in project "C:\Program Files (x86)\Microsoft Visual Studio\2019\Community\MSBuild\Current\Bin\Microsoft.Common.CurrentVersion.targets" with target "ResGen" from project "C:\Program Files (x86)\Microsoft Visual Studio\2019\Community\MSBuild\Microsoft\VC\v160\Microsoft.CppCommon.targets".
       Overriding target "GenerateSatelliteAssemblies" in project "C:\Program Files (x86)\Microsoft Visual Studio\2019\Community\MSBuild\Current\Bin\Microsoft.Common.CurrentVersion.targets" with target "GenerateSatelliteAssemblies" from project "C:\Program Files (x86)\Microsoft Visual Studio\2019\Community\MSBuild\Microsoft\VC\v160\Microsoft.CppCommon.targets".
       Overriding target "Manifest" in project "C:\Program Files (x86)\Microsoft Visual Studio\2019\Community\MSBuild\Microsoft\VC\v160\Microsoft.CppBuild.targets" with target "Manifest" from project "C:\Program Files (x86)\Microsoft Visual Studio\2019\Community\MSBuild\Microsoft\VC\v160\Microsoft.CppCommon.targets".
       Overriding target "XdcMake" in project "C:\Program Files (x86)\Microsoft Visual Studio\2019\Community\MSBuild\Microsoft\VC\v160\Microsoft.CppBuild.targets" with target "XdcMake" from project "C:\Program Files (x86)\Microsoft Visual Studio\2019\Community\MSBuild\Microsoft\VC\v160\Microsoft.CppCommon.targets".
       Overriding target "BscMake" in project "C:\Program Files (x86)\Microsoft Visual Studio\2019\Community\MSBuild\Microsoft\VC\v160\Microsoft.CppBuild.targets" with target "BscMake" from project "C:\Program Files (x86)\Microsoft Visual Studio\2019\Community\MSBuild\Microsoft\VC\v160\Microsoft.CppCommon.targets".
       Overriding target "ComputeMetaGenInputs" in project "C:\Program Files (x86)\Microsoft Visual Studio\2019\Community\MSBuild\Microsoft\VC\v160\Microsoft.MetaGen.targets" with target "ComputeMetaGenInputs" from project "C:\Program Files (x86)\Microsoft Visual Studio\2019\Community\MSBuild\Microsoft\VC\v160\Microsoft.CppCommon.targets".
       Overriding target "GetNativeManifest" in project "C:\Program Files (x86)\Microsoft Visual Studio\2019\Community\MSBuild\Current\Bin\Microsoft.Common.CurrentVersion.targets" with target "GetNativeManifest" from project "C:\Program Files (x86)\Microsoft Visual Studio\2019\Community\MSBuild\Microsoft\VC\v160\Microsoft.CppCommon.targets".
       Overriding target "GetTargetPathWithTargetPlatformMoniker" in project "C:\Program Files (x86)\Microsoft Visual Studio\2019\Community\MSBuild\Current\Bin\Microsoft.Common.CurrentVersion.targets" with target "GetTargetPathWithTargetPlatformMoniker" from project "C:\Program Files (x86)\Microsoft Visual Studio\2019\Community\MSBuild\Microsoft\VC\v160\Microsoft.Cpp.DesignTime.targets".
Build started 1/12/2023 6:05:40 PM.
Logging verbosity is set to: Detailed.     1>Project "C:\Users\Zhitian Qiao\Desktop\DualSPHysics-master\src_mphase\DSPH_v5.0_NNewtonian\VS\DualSPHysics5Re.vcxproj" on node 2 (Build target(s)).
     1>Building with tools version "Current".
       Project file contains ToolsVersion="14.0". This toolset may be unknown or missing, in which case you may be able to resolve this by installing the appropriate version of MSBuild, or the build may have been forced to a particular ToolsVersion for policy reasons. Treating the project as if it had ToolsVersion="Current". For more information, please see http://go.microsoft.com/fwlink/?LinkId=293424.
       Target "EnableIntermediateOutputPathMismatchWarning" skipped, due to false condition; ('$(RestoreProjectStyle)' == 'PackageReference') was evaluated as ('' == 'PackageReference').
     1>Target "_CheckForInvalidConfigurationAndPlatform" in file "C:\Program Files (x86)\Microsoft Visual Studio\2019\Community\MSBuild\Current\Bin\Microsoft.Common.CurrentVersion.targets" from project "C:\Users\Zhitian Qiao\Desktop\DualSPHysics-master\src_mphase\DSPH_v5.0_NNewtonian\VS\DualSPHysics5Re.vcxproj" (target "SetTelemetryEnvironmentVariables" depends on it):
       Task "Error" skipped, due to false condition; ( '$(_InvalidConfigurationError)' == 'true' ) was evaluated as ( '' == 'true' ).
       Task "Warning" skipped, due to false condition; ( '$(_InvalidConfigurationWarning)' == 'true' ) was evaluated as ( '' == 'true' ).
       Using "Message" task from assembly "Microsoft.Build.Tasks.Core, Version=15.1.0.0, Culture=neutral, PublicKeyToken=b03f5f7f11d50a3a".
       Task "Message"
         Configuration=DebugGPU
       Done executing task "Message".
       Task "Message"
         Platform=x64
       Done executing task "Message".
       Task "Error" skipped, due to false condition; ('$(OutDir)' != '' and !HasTrailingSlash('$(OutDir)')) was evaluated as ('C:\Users\Zhitian Qiao\Desktop\DualSPHysics-master\src_mphase\DSPH_v5.0_NNewtonian\VS\x64\DebugGPU\' != '' and !HasTrailingSlash('C:\Users\Zhitian Qiao\Desktop\DualSPHysics-master\src_mphase\DSPH_v5.0_NNewtonian\VS\x64\DebugGPU\')).
       Task "Error" skipped, due to false condition; ('$(IntermediateOutputPath)' != '' and !HasTrailingSlash('$(IntermediateOutputPath)')) was evaluated as ('x64\DebugGPU\' != '' and !HasTrailingSlash('x64\DebugGPU\')).
       Task "Error" skipped, due to false condition; ('$(BaseIntermediateOutputPath)' != '' and !HasTrailingSlash('$(BaseIntermediateOutputPath)')) was evaluated as ('obj\' != '' and !HasTrailingSlash('obj\')).
       Task "Error" skipped, due to false condition; ( '$(_InitialMSBuildProjectExtensionsPath)' != '' And '$(MSBuildProjectExtensionsPath)' != '$(_InitialMSBuildProjectExtensionsPath)' ) was evaluated as ( 'C:\Users\Zhitian Qiao\Desktop\DualSPHysics-master\src_mphase\DSPH_v5.0_NNewtonian\VS\obj\' != '' And 'C:\Users\Zhitian Qiao\Desktop\DualSPHysics-master\src_mphase\DSPH_v5.0_NNewtonian\VS\obj\' != 'C:\Users\Zhitian Qiao\Desktop\DualSPHysics-master\src_mphase\DSPH_v5.0_NNewtonian\VS\obj\' ).
       Task "Warning" skipped, due to false condition; ( '$(EnableBaseIntermediateOutputPathMismatchWarning)' == 'true' And '$(_InitialBaseIntermediateOutputPath)' != '$(BaseIntermediateOutputPath)' And '$(BaseIntermediateOutputPath)' != '$(MSBuildProjectExtensionsPath)' ) was evaluated as ( '' == 'true' And 'obj\' != 'obj\' And 'obj\' != 'C:\Users\Zhitian Qiao\Desktop\DualSPHysics-master\src_mphase\DSPH_v5.0_NNewtonian\VS\obj\' ).
     1>Done building target "_CheckForInvalidConfigurationAndPlatform" in project "DualSPHysics5Re.vcxproj".
       Target "_CheckForInvalidConfigurationAndPlatform" skipped. Previously built successfully.
     1>Target "SetTelemetryEnvironmentVariables" in file "C:\Program Files (x86)\Microsoft Visual Studio\2019\Community\MSBuild\Microsoft\VC\v160\Microsoft.Cpp.DesignTime.targets" from project "C:\Users\Zhitian Qiao\Desktop\DualSPHysics-master\src_mphase\DSPH_v5.0_NNewtonian\VS\DualSPHysics5Re.vcxproj" (target "Build" depends on it):
       Using "SetEnv" task from assembly "C:\Program Files (x86)\Microsoft Visual Studio\2019\Community\MSBuild\Microsoft\VC\v160\Microsoft.Build.CppTasks.Common.dll".
[...]
       Output files: x64\DebugGPU\JDsAccInput_ker.cu.obj
  1:14>Done building target "CudaBuildCore" in project "DualSPHysics5Re.vcxproj".
  1:14>Done Building Project "C:\Users\Zhitian Qiao\Desktop\DualSPHysics-master\src_mphase\DSPH_v5.0_NNewtonian\VS\DualSPHysics5Re.vcxproj" (CudaBuildCore target(s)).
  1:16>Target "CudaBuildCore" in file "C:\Program Files (x86)\Microsoft Visual Studio\2019\Community\MSBuild\Microsoft\VC\v160\BuildCustomizations\CUDA 11.1.targets" from project "C:\Users\Zhitian Qiao\Desktop\DualSPHysics-master\src_mphase\DSPH_v5.0_NNewtonian\VS\DualSPHysics5Re.vcxproj" (entry point):
  1:16>Skipping target "CudaBuildCore" because all output files are up-to-date with respect to the input files.
       Input files: 
           C:\Users\Zhitian Qiao\Desktop\DualSPHysics-master\src_mphase\DSPH_v5.0_NNewtonian\source\JSphShifting_ker.cu
           C:\Program Files\NVIDIA GPU Computing Toolkit\CUDA\v9.2\include\cuda_runtime.h
           c:\program files\nvidia gpu computing toolkit\cuda\v9.2\include\host_config.h
           c:\program files\nvidia gpu computing toolkit\cuda\v9.2\include\crt/host_config.h
           E:\VS2015\VC\include\crtdefs.h
           E:\VS2015\VC\include\vcruntime.h
           E:\VS2015\VC\include\sal.h
           E:\VS2015\VC\include\ConcurrencySal.h
           E:\VS2015\VC\include\vadefs.h
           C:\Program Files %28x86%29\Windows Kits\10\Include\10.0.10240.0\ucrt\corecrt.h
           c:\program files\nvidia gpu computing toolkit\cuda\v9.2\include\builtin_types.h
           c:\program files\nvidia gpu computing toolkit\cuda\v9.2\include\device_types.h
           c:\program files\nvidia gpu computing toolkit\cuda\v9.2\include\host_defines.h
           c:\program files\nvidia gpu computing toolkit\cuda\v9.2\include\crt/host_defines.h
           c:\program files\nvidia gpu computing toolkit\cuda\v9.2\include\driver_types.h
           c:\program files\nvidia gpu computing toolkit\cuda\v9.2\include\vector_types.h
           E:\VS2015\VC\include\limits.h
           C:\Program Files %28x86%29\Windows Kits\10\Include\10.0.10240.0\ucrt\stddef.h
           c:\program files\nvidia gpu computing toolkit\cuda\v9.2\include\surface_types.h
           c:\program files\nvidia gpu computing toolkit\cuda\v9.2\include\texture_types.h
           c:\program files\nvidia gpu computing toolkit\cuda\v9.2\include\library_types.h
           c:\program files\nvidia gpu computing toolkit\cuda\v9.2\include\channel_descriptor.h
           C:\Program Files\NVIDIA GPU Computing Toolkit\CUDA\v9.2\include\cuda_runtime_api.h
           c:\program files\nvidia gpu computing toolkit\cuda\v9.2\include\cuda_device_runtime_api.h
           c:\program files\nvidia gpu computing toolkit\cuda\v9.2\include\driver_functions.h
           c:\program files\nvidia gpu computing toolkit\cuda\v9.2\include\vector_functions.h
           c:\program files\nvidia gpu computing toolkit\cuda\v9.2\include\vector_functions.hpp
           c:\program files\nvidia gpu computing toolkit\cuda\v9.2\include\common_functions.h
           c:\program files\nvidia gpu computing toolkit\cuda\v9.2\include\crt/common_functions.h
           c:\program files\nvidia gpu computing toolkit\cuda\v9.2\include\crt\host_defines.h
           C:\Program Files %28x86%29\Windows Kits\10\Include\10.0.10240.0\ucrt\string.h
           C:\Program Files %28x86%29\Windows Kits\10\Include\10.0.10240.0\ucrt\corecrt_memory.h
           C:\Program Files %28x86%29\Windows Kits\10\Include\10.0.10240.0\ucrt\corecrt_memcpy_s.h
           C:\Program Files %28x86%29\Windows Kits\10\Include\10.0.10240.0\ucrt\errno.h
           E:\VS2015\VC\include\vcruntime_string.h
           C:\Program Files %28x86%29\Windows Kits\10\Include\10.0.10240.0\ucrt\corecrt_wstring.h
           C:\Program Files %28x86%29\Windows Kits\10\Include\10.0.10240.0\ucrt\time.h
           C:\Program Files %28x86%29\Windows Kits\10\Include\10.0.10240.0\ucrt\corecrt_wtime.h
           c:\program files\nvidia gpu computing toolkit\cuda\v9.2\include\crt\math_functions.h
           C:\Program Files %28x86%29\Windows Kits\10\Include\10.0.10240.0\ucrt\math.h
           C:\Program Files %28x86%29\Windows Kits\10\Include\10.0.10240.0\ucrt\stdlib.h
           C:\Program Files %28x86%29\Windows Kits\10\Include\10.0.10240.0\ucrt\corecrt_malloc.h
           C:\Program Files %28x86%29\Windows Kits\10\Include\10.0.10240.0\ucrt\corecrt_search.h
           C:\Program Files %28x86%29\Windows Kits\10\Include\10.0.10240.0\ucrt\corecrt_wstdlib.h
           E:\VS2015\VC\include\cmath
           E:\VS2015\VC\include\yvals.h
           E:\VS2015\VC\include\xkeycheck.h
           E:\VS2015\VC\include\use_ansi.h
           E:\VS2015\VC\include\xtgmath.h
           E:\VS2015\VC\include\xtr1common
           E:\VS2015\VC\include\cstdlib
           c:\program files\nvidia gpu computing toolkit\cuda\v9.2\include\crt\math_functions.hpp
           c:\program files\nvidia gpu computing toolkit\cuda\v9.2\include\cuda_surface_types.h
           c:\program files\nvidia gpu computing toolkit\cuda\v9.2\include\cuda_texture_types.h
           c:\program files\nvidia gpu computing toolkit\cuda\v9.2\include\device_functions.h
           c:\program files\nvidia gpu computing toolkit\cuda\v9.2\include\crt/device_functions.h
           c:\program files\nvidia gpu computing toolkit\cuda\v9.2\include\crt\device_functions.hpp
           c:\program files\nvidia gpu computing toolkit\cuda\v9.2\include\device_atomic_functions.h
           c:\program files\nvidia gpu computing toolkit\cuda\v9.2\include\crt\device_double_functions.h
           c:\program files\nvidia gpu computing toolkit\cuda\v9.2\include\crt\device_double_functions.hpp
           c:\program files\nvidia gpu computing toolkit\cuda\v9.2\include\sm_20_atomic_functions.h
           c:\program files\nvidia gpu computing toolkit\cuda\v9.2\include\sm_32_atomic_functions.h
           c:\program files\nvidia gpu computing toolkit\cuda\v9.2\include\sm_35_atomic_functions.h
           c:\program files\nvidia gpu computing toolkit\cuda\v9.2\include\sm_60_atomic_functions.h
           c:\program files\nvidia gpu computing toolkit\cuda\v9.2\include\sm_20_intrinsics.h
           c:\program files\nvidia gpu computing toolkit\cuda\v9.2\include\sm_30_intrinsics.h
           c:\program files\nvidia gpu computing toolkit\cuda\v9.2\include\sm_32_intrinsics.h
           c:\program files\nvidia gpu computing toolkit\cuda\v9.2\include\sm_35_intrinsics.h
           c:\program files\nvidia gpu computing toolkit\cuda\v9.2\include\sm_61_intrinsics.h
           c:\program files\nvidia gpu computing toolkit\cuda\v9.2\include\crt\sm_70_rt.h
           c:\program files\nvidia gpu computing toolkit\cuda\v9.2\include\surface_functions.h
           c:\program files\nvidia gpu computing toolkit\cuda\v9.2\include\texture_fetch_functions.h
           c:\program files\nvidia gpu computing toolkit\cuda\v9.2\include\texture_indirect_functions.h
           c:\program files\nvidia gpu computing toolkit\cuda\v9.2\include\surface_indirect_functions.h
           c:\program files\nvidia gpu computing toolkit\cuda\v9.2\include\device_launch_parameters.h
           c:\users\zhitian qiao\desktop\dualsphysics-master\src_mphase\dsph_v5.0_nnewtonian\source\JSphShifting_ker.h
           c:\users\zhitian qiao\desktop\dualsphysics-master\src_mphase\dsph_v5.0_nnewtonian\source\TypesDef.h
           E:\VS2015\VC\include\vector
           E:\VS2015\VC\include\xmemory
           E:\VS2015\VC\include\xmemory0
           E:\VS2015\VC\include\cstdint
           E:\VS2015\VC\include\stdint.h
           E:\VS2015\VC\include\limits
           E:\VS2015\VC\include\ymath.h
           E:\VS2015\VC\include\cfloat
           C:\Program Files %28x86%29\Windows Kits\10\Include\10.0.10240.0\ucrt\float.h
           E:\VS2015\VC\include\climits
           E:\VS2015\VC\include\cwchar
           C:\Program Files %28x86%29\Windows Kits\10\Include\10.0.10240.0\ucrt\wchar.h
           C:\Program Files %28x86%29\Windows Kits\10\Include\10.0.10240.0\ucrt\corecrt_wconio.h
           C:\Program Files %28x86%29\Windows Kits\10\Include\10.0.10240.0\ucrt\corecrt_stdio_config.h
           C:\Program Files %28x86%29\Windows Kits\10\Include\10.0.10240.0\ucrt\corecrt_wctype.h
           C:\Program Files %28x86%29\Windows Kits\10\Include\10.0.10240.0\ucrt\corecrt_wdirect.h
           C:\Program Files %28x86%29\Windows Kits\10\Include\10.0.10240.0\ucrt\corecrt_wio.h
           C:\Program Files %28x86%29\Windows Kits\10\Include\10.0.10240.0\ucrt\corecrt_share.h
           C:\Program Files %28x86%29\Windows Kits\10\Include\10.0.10240.0\ucrt\corecrt_wprocess.h
           C:\Program Files %28x86%29\Windows Kits\10\Include\10.0.10240.0\ucrt\corecrt_wstdio.h
           C:\Program Files %28x86%29\Windows Kits\10\Include\10.0.10240.0\ucrt\sys/stat.h
           C:\Program Files %28x86%29\Windows Kits\10\Include\10.0.10240.0\ucrt\sys/types.h
           E:\VS2015\VC\include\xstddef
           E:\VS2015\VC\include\cstddef
           E:\VS2015\VC\include\initializer_list
           E:\VS2015\VC\include\new
           E:\VS2015\VC\include\exception
           E:\VS2015\VC\include\type_traits
           C:\Program Files %28x86%29\Windows Kits\10\Include\10.0.10240.0\ucrt\malloc.h
           E:\VS2015\VC\include\vcruntime_exception.h
           E:\VS2015\VC\include\eh.h
           C:\Program Files %28x86%29\Windows Kits\10\Include\10.0.10240.0\ucrt\corecrt_terminate.h
           E:\VS2015\VC\include\vcruntime_new.h
           E:\VS2015\VC\include\xutility
           E:\VS2015\VC\include\utility
           E:\VS2015\VC\include\iosfwd
           E:\VS2015\VC\include\cstdio
           C:\Program Files %28x86%29\Windows Kits\10\Include\10.0.10240.0\ucrt\stdio.h
           E:\VS2015\VC\include\cstring
           C:\Program Files %28x86%29\Windows Kits\10\Include\10.0.10240.0\ucrt\crtdbg.h
           E:\VS2015\VC\include\vcruntime_new_debug.h
           E:\VS2015\VC\include\xatomic0.h
           E:\VS2015\VC\include\intrin.h
           E:\VS2015\VC\include\setjmp.h
           E:\VS2015\VC\include\immintrin.h
           E:\VS2015\VC\include\wmmintrin.h
           E:\VS2015\VC\include\nmmintrin.h
           E:\VS2015\VC\include\smmintrin.h
           E:\VS2015\VC\include\tmmintrin.h
           E:\VS2015\VC\include\pmmintrin.h
           E:\VS2015\VC\include\emmintrin.h
           E:\VS2015\VC\include\xmmintrin.h
           E:\VS2015\VC\include\mmintrin.h
           E:\VS2015\VC\include\ammintrin.h
           E:\VS2015\VC\include\stdexcept
           E:\VS2015\VC\include\xstring
           E:\VS2015\VC\include\string
           E:\VS2015\VC\include\istream
           E:\VS2015\VC\include\ostream
           E:\VS2015\VC\include\ios
           E:\VS2015\VC\include\xlocnum
           E:\VS2015\VC\include\streambuf
           E:\VS2015\VC\include\xiosbase
           E:\VS2015\VC\include\xlocale
           E:\VS2015\VC\include\typeinfo
           E:\VS2015\VC\include\vcruntime_typeinfo.h
           E:\VS2015\VC\include\xlocinfo
           E:\VS2015\VC\include\xlocinfo.h
           C:\Program Files %28x86%29\Windows Kits\10\Include\10.0.10240.0\ucrt\ctype.h
           C:\Program Files %28x86%29\Windows Kits\10\Include\10.0.10240.0\ucrt\locale.h
           E:\VS2015\VC\include\xfacet
           E:\VS2015\VC\include\system_error
           E:\VS2015\VC\include\cerrno
           C:\Program Files %28x86%29\Windows Kits\10\Include\10.0.10240.0\ucrt\share.h
           c:\users\zhitian qiao\desktop\dualsphysics-master\src_mphase\dsph_v5.0_nnewtonian\source\FunctionsBasic_iker.h
           c:\users\zhitian qiao\desktop\dualsphysics-master\src_mphase\dsph_v5.0_nnewtonian\source\FunctionsGeo3d_iker.h
       Output files: x64\DebugGPU\JSphShifting_ker.cu.obj
  1:16>Done building target "CudaBuildCore" in project "DualSPHysics5Re.vcxproj".
  1:16>Done Building Project "C:\Users\Zhitian Qiao\Desktop\DualSPHysics-master\src_mphase\DSPH_v5.0_NNewtonian\VS\DualSPHysics5Re.vcxproj" (CudaBuildCore target(s)).
  1:11>CudaBuildCore:
       Using "CudaCompile" task from the task factory "XamlTaskFactory".
       Task "CudaCompile"
         cmd.exe /C "C:\Users\Zhitian Qiao\AppData\Local\Temp\tmpe1e55479c89b4fab8b0002e755f39a74.cmd"
         "C:\Program Files\NVIDIA GPU Computing Toolkit\CUDA\v11.1\bin\nvcc.exe" -gencode=arch=compute_61,code=\"sm_61,compute_61\" --use-local-env -ccbin "C:\Program Files (x86)\Microsoft Visual Studio\2019\Community\VC\Tools\MSVC\14.29.30133\bin\HostX86\x64" -x cu   -I"C:\Program Files\NVIDIA GPU Computing Toolkit\CUDA\v11.1\include" -I"C:\Program Files\NVIDIA GPU Computing Toolkit\CUDA\v11.1\include"     --keep-dir x64\DebugGPU -maxrregcount=0  --machine 64 --compile -cudart static     -Dcudnn -Xcompiler "/EHsc /W1 /nologo /O2 /Fdx64\DebugGPU\vc142.pdb /FS /Zi  /MD " -o x64\DebugGPU\JSphGpu_NN_ker.cu.obj "C:\Users\Zhitian Qiao\Desktop\DualSPHysics-master\src_mphase\DSPH_v5.0_NNewtonian\source\JSphGpu_NN_ker.cu"
         
         C:\Users\Zhitian Qiao\Desktop\DualSPHysics-master\src_mphase\DSPH_v5.0_NNewtonian\VS>"C:\Program Files\NVIDIA GPU Computing Toolkit\CUDA\v11.1\bin\nvcc.exe" -gencode=arch=compute_61,code=\"sm_61,compute_61\" --use-local-env -ccbin "C:\Program Files (x86)\Microsoft Visual Studio\2019\Community\VC\Tools\MSVC\14.29.30133\bin\HostX86\x64" -x cu   -I"C:\Program Files\NVIDIA GPU Computing Toolkit\CUDA\v11.1\include" -I"C:\Program Files\NVIDIA GPU Computing Toolkit\CUDA\v11.1\include"     --keep-dir x64\DebugGPU -maxrregcount=0  --machine 64 --compile -cudart static     -Dcudnn -Xcompiler "/EHsc /W1 /nologo /O2 /Fdx64\DebugGPU\vc142.pdb /FS /Zi  /MD " -o x64\DebugGPU\JSphGpu_NN_ker.cu.obj "C:\Users\Zhitian Qiao\Desktop\DualSPHysics-master\src_mphase\DSPH_v5.0_NNewtonian\source\JSphGpu_NN_ker.cu" 
  1:11>C:\Users\Zhitian Qiao\Desktop\DualSPHysics-master\src_mphase\DSPH_v5.0_NNewtonian\source\JSphGpu_NN_ker.h(40): error : identifier "StInterParmsg" is undefined
         
  1:11>C:/Users/Zhitian Qiao/Desktop/DualSPHysics-master/src_mphase/DSPH_v5.0_NNewtonian/source/JSphGpu_NN_ker.cu(78): error : identifier "CTE" is undefined
         
  1:11>C:/Users/Zhitian Qiao/Desktop/DualSPHysics-master/src_mphase/DSPH_v5.0_NNewtonian/source/JSphGpu_NN_ker.cu(730): error : identifier "StInterParmsg" is undefined
         
  1:11>C:/Users/Zhitian Qiao/Desktop/DualSPHysics-master/src_mphase/DSPH_v5.0_NNewtonian/source/JSphGpu_NN_ker.cu(1397): error : identifier "StInterParmsg" is undefined
         
  1:11>C:/Users/Zhitian Qiao/Desktop/DualSPHysics-master/src_mphase/DSPH_v5.0_NNewtonian/source/JSphGpu_NN_ker.cu(1488): error : identifier "StInterParmsg" is undefined
         
  1:11>C:/Users/Zhitian Qiao/Desktop/DualSPHysics-master/src_mphase/DSPH_v5.0_NNewtonian/source/JSphGpu_NN_ker.cu(1498): error : identifier "StInterParmsg" is undefined
         
  1:11>C:/Users/Zhitian Qiao/Desktop/DualSPHysics-master/src_mphase/DSPH_v5.0_NNewtonian/source/JSphGpu_NN_ker.cu(1520): error : identifier "StInterParmsg" is undefined
         
  1:11>C:/Users/Zhitian Qiao/Desktop/DualSPHysics-master/src_mphase/DSPH_v5.0_NNewtonian/source/JSphGpu_NN_ker.cu(1532): error : identifier "StInterParmsg" is undefined
         
  1:11>C:/Users/Zhitian Qiao/Desktop/DualSPHysics-master/src_mphase/DSPH_v5.0_NNewtonian/source/JSphGpu_NN_ker.cu(1543): error : identifier "StInterParmsg" is undefined
         
         9 errors detected in the compilation of "C:/Users/Zhitian Qiao/Desktop/DualSPHysics-master/src_mphase/DSPH_v5.0_NNewtonian/source/JSphGpu_NN_ker.cu".
         JSphGpu_NN_ker.cu
  1:11>C:\Program Files (x86)\Microsoft Visual Studio\2019\Community\MSBuild\Microsoft\VC\v160\BuildCustomizations\CUDA 11.1.targets(785,9): error MSB3721: The command ""C:\Program Files\NVIDIA GPU Computing Toolkit\CUDA\v11.1\bin\nvcc.exe" -gencode=arch=compute_61,code=\"sm_61,compute_61\" --use-local-env -ccbin "C:\Program Files (x86)\Microsoft Visual Studio\2019\Community\VC\Tools\MSVC\14.29.30133\bin\HostX86\x64" -x cu   -I"C:\Program Files\NVIDIA GPU Computing Toolkit\CUDA\v11.1\include" -I"C:\Program Files\NVIDIA GPU Computing Toolkit\CUDA\v11.1\include"     --keep-dir x64\DebugGPU -maxrregcount=0  --machine 64 --compile -cudart static     -Dcudnn -Xcompiler "/EHsc /W1 /nologo /O2 /Fdx64\DebugGPU\vc142.pdb /FS /Zi  /MD " -o x64\DebugGPU\JSphGpu_NN_ker.cu.obj "C:\Users\Zhitian Qiao\Desktop\DualSPHysics-master\src_mphase\DSPH_v5.0_NNewtonian\source\JSphGpu_NN_ker.cu"" exited with code 1.
       Done executing task "CudaCompile" -- FAILED.
  1:11>Done building target "CudaBuildCore" in project "DualSPHysics5Re.vcxproj" -- FAILED.
  1:11>Done Building Project "C:\Users\Zhitian Qiao\Desktop\DualSPHysics-master\src_mphase\DSPH_v5.0_NNewtonian\VS\DualSPHysics5Re.vcxproj" (CudaBuildCore target(s)) -- FAILED.
     1>Done executing task "MSBuild" -- FAILED.
     1>Done building target "CudaBuild" in project "DualSPHysics5Re.vcxproj" -- FAILED.
     1>Done Building Project "C:\Users\Zhitian Qiao\Desktop\DualSPHysics-master\src_mphase\DSPH_v5.0_NNewtonian\VS\DualSPHysics5Re.vcxproj" (Build target(s)) -- FAILED.

Build FAILED.

       "C:\Users\Zhitian Qiao\Desktop\DualSPHysics-master\src_mphase\DSPH_v5.0_NNewtonian\VS\DualSPHysics5Re.vcxproj" (Build target) (1) ->
       "C:\Users\Zhitian Qiao\Desktop\DualSPHysics-master\src_mphase\DSPH_v5.0_NNewtonian\VS\DualSPHysics5Re.vcxproj" (CudaBuildCore target) (1:11) ->
       (CudaBuildCore target) -> 
         C:\Users\Zhitian Qiao\Desktop\DualSPHysics-master\src_mphase\DSPH_v5.0_NNewtonian\source\JSphGpu_NN_ker.h(40): error : identifier "StInterParmsg" is undefined
         C:/Users/Zhitian Qiao/Desktop/DualSPHysics-master/src_mphase/DSPH_v5.0_NNewtonian/source/JSphGpu_NN_ker.cu(78): error : identifier "CTE" is undefined
         C:/Users/Zhitian Qiao/Desktop/DualSPHysics-master/src_mphase/DSPH_v5.0_NNewtonian/source/JSphGpu_NN_ker.cu(730): error : identifier "StInterParmsg" is undefined
         C:/Users/Zhitian Qiao/Desktop/DualSPHysics-master/src_mphase/DSPH_v5.0_NNewtonian/source/JSphGpu_NN_ker.cu(1397): error : identifier "StInterParmsg" is undefined
         C:/Users/Zhitian Qiao/Desktop/DualSPHysics-master/src_mphase/DSPH_v5.0_NNewtonian/source/JSphGpu_NN_ker.cu(1488): error : identifier "StInterParmsg" is undefined
         C:/Users/Zhitian Qiao/Desktop/DualSPHysics-master/src_mphase/DSPH_v5.0_NNewtonian/source/JSphGpu_NN_ker.cu(1498): error : identifier "StInterParmsg" is undefined
         C:/Users/Zhitian Qiao/Desktop/DualSPHysics-master/src_mphase/DSPH_v5.0_NNewtonian/source/JSphGpu_NN_ker.cu(1520): error : identifier "StInterParmsg" is undefined
         C:/Users/Zhitian Qiao/Desktop/DualSPHysics-master/src_mphase/DSPH_v5.0_NNewtonian/source/JSphGpu_NN_ker.cu(1532): error : identifier "StInterParmsg" is undefined
         C:/Users/Zhitian Qiao/Desktop/DualSPHysics-master/src_mphase/DSPH_v5.0_NNewtonian/source/JSphGpu_NN_ker.cu(1543): error : identifier "StInterParmsg" is undefined
         C:\Program Files (x86)\Microsoft Visual Studio\2019\Community\MSBuild\Microsoft\VC\v160\BuildCustomizations\CUDA 11.1.targets(785,9): error MSB3721: The command ""C:\Program Files\NVIDIA GPU Computing Toolkit\CUDA\v11.1\bin\nvcc.exe" -gencode=arch=compute_61,code=\"sm_61,compute_61\" --use-local-env -ccbin "C:\Program Files (x86)\Microsoft Visual Studio\2019\Community\VC\Tools\MSVC\14.29.30133\bin\HostX86\x64" -x cu   -I"C:\Program Files\NVIDIA GPU Computing Toolkit\CUDA\v11.1\include" -I"C:\Program Files\NVIDIA GPU Computing Toolkit\CUDA\v11.1\include"     --keep-dir x64\DebugGPU -maxrregcount=0  --machine 64 --compile -cudart static     -Dcudnn -Xcompiler "/EHsc /W1 /nologo /O2 /Fdx64\DebugGPU\vc142.pdb /FS /Zi  /MD " -o x64\DebugGPU\JSphGpu_NN_ker.cu.obj "C:\Users\Zhitian Qiao\Desktop\DualSPHysics-master\src_mphase\DSPH_v5.0_NNewtonian\source\JSphGpu_NN_ker.cu"" exited with code 1.

    0 Warning(s)
    10 Error(s)

Time Elapsed 00:00:01.14
