Identity=..\source\JDsPips_ker.cu
AdditionalCompilerOptions=
AdditionalCompilerOptions=
AdditionalDependencies=
AdditionalDeps=
AdditionalLibraryDirectories=
AdditionalOptions=-use_fast_math -Xcompiler "/wd 4267" 
AdditionalOptions=-use_fast_math -Xcompiler "/wd 4267" 
CodeGeneration=compute_30,sm_30;compute_35,sm_35;compute_50,sm_50;compute_52,sm_52;compute_61,sm_61;compute_70,sm_70
CodeGeneration=compute_30,sm_30;compute_35,sm_35;compute_50,sm_50;compute_52,sm_52;compute_61,sm_61;compute_70,sm_70
CompileOut=Intermediate/DualSPHysics_Release_x64/JDsPips_ker.cu.obj
CudaRuntime=Static
CudaToolkitCustomDir=
Defines=;_WITHGPU;WIN32;_CONSOLE;_VC80_UPGRADE=0x0710;_MBCS;;
Emulation=false
FastMath=false
GenerateLineInfo=false
GenerateRelocatableDeviceCode=false
GPUDebugInfo=false
GPUDebugInfo=false
HostDebugInfo=false
Include=
Inputs=
InterleaveSourceInPTX=false
Keep=false
KeepDir=x64\Release
LinkOut=
MaxRegCount=0
NvccCompilation=compile
NvccPath=
Optimization=O2
Optimization=O2
PerformDeviceLink=
ProgramDataBaseFileName=Intermediate/DualSPHysics_Release_x64/vc140.pdb
PtxAsOptionV=false
RequiredIncludes=
Runtime=MT
Runtime=MT
RuntimeChecks=Default
RuntimeChecks=Default
TargetMachinePlatform=64
TargetMachinePlatform=64
TypeInfo=
TypeInfo=
UseHostDefines=true
UseHostInclude=false
UseHostLibraryDependencies=
UseHostLibraryDirectories=
Warning=W3
Warning=W3
