C:\Program Files (x86)\MSBuild\Microsoft.Cpp\v4.0\V140\Microsoft.CppBuild.targets(368,5): warning MSB8004: Output Directory does not end with a trailing slash.  This build instance will add the slash as it is required to allow proper evaluation of the Output Directory.
  Compiling CUDA source file ..\source\FunctionsGeo3d_iker.h...
  Compiling CUDA source file ..\source\FunctionsMath_iker.h...
  Compiling CUDA source file ..\source\JDsPips_ker.cu...
  Compiling CUDA source file ..\source\JDsGauge_ker.cu...
  Compiling CUDA source file ..\source\JRelaxZone_ker.cu...
  Skipping CUDA source file ..\source\JSphGpu_NN_ker.cu (excluded from build).
  Compiling CUDA source file ..\source\JSphGpuSimple_ker.cu...
  Compiling CUDA source file ..\source\JCellDivGpu_ker.cu...
  Compiling CUDA source file ..\source\JSphShifting_ker.cu...
  Compiling CUDA source file ..\source\JReduSum_ker.cu...
  Compiling CUDA source file ..\source\JCellDivGpuSingle_ker.cu...
  Compiling CUDA source file ..\source\JDsAccInput_ker.cu...
  Compiling CUDA source file ..\source\JSphGpu_ker.cu...
  Compiling CUDA source file ..\source\JWaveOrder2_ker.cu...
  Skipping CUDA source file ..\source\JSphGpu_InOut_ker.cu (excluded from build).
  
  C:\Users\Zhitian Qiao\Desktop\DualSPHysics-master\src_mphase\DSPH_v5.0_NNewtonian\VS>"C:\Program Files\NVIDIA GPU Computing Toolkit\CUDA\v9.2\bin\nvcc.exe" -gencode=arch=compute_52,code=\"sm_52,compute_52\" --use-local-env -ccbin "E:\VS2015\VC\bin\x86_amd64" -x cu   -I"C:\Program Files\NVIDIA GPU Computing Toolkit\CUDA\v9.2\include"  -G   --keep-dir x64\Debug -maxrregcount=0  --machine 64 --compile -cudart static -use_fast_math -Xcompiler "/wd 4267" -g   -D_WITHGPU -DWIN32 -D_CONSOLE -D_VC80_UPGRADE=0x0710 -D_MBCS -Xcompiler "/EHsc /W3 /nologo /Od /FdIntermediate/DualSPHysics_Debug_x64/vc140.pdb /FS /Zi /RTC1 /MTd " -o Intermediate/DualSPHysics_Debug_x64/FunctionsGeo3d_iker.h.obj "C:\Users\Zhitian Qiao\Desktop\DualSPHysics-master\src_mphase\DSPH_v5.0_NNewtonian\source\FunctionsGeo3d_iker.h" 
  
  C:\Users\Zhitian Qiao\Desktop\DualSPHysics-master\src_mphase\DSPH_v5.0_NNewtonian\VS>"C:\Program Files\NVIDIA GPU Computing Toolkit\CUDA\v9.2\bin\nvcc.exe" -gencode=arch=compute_52,code=\"sm_52,compute_52\" --use-local-env -ccbin "E:\VS2015\VC\bin\x86_amd64" -x cu   -I"C:\Program Files\NVIDIA GPU Computing Toolkit\CUDA\v9.2\include"  -G   --keep-dir x64\Debug -maxrregcount=0  --machine 64 --compile -cudart static -use_fast_math -Xcompiler "/wd 4267" -g   -D_WITHGPU -DWIN32 -D_CONSOLE -D_VC80_UPGRADE=0x0710 -D_MBCS -Xcompiler "/EHsc /W3 /nologo /Od /FdIntermediate/DualSPHysics_Debug_x64/vc140.pdb /FS /Zi /RTC1 /MTd " -o Intermediate/DualSPHysics_Debug_x64/JCellDivGpu_ker.cu.obj "C:\Users\Zhitian Qiao\Desktop\DualSPHysics-master\src_mphase\DSPH_v5.0_NNewtonian\source\JCellDivGpu_ker.cu" 
  
  C:\Users\Zhitian Qiao\Desktop\DualSPHysics-master\src_mphase\DSPH_v5.0_NNewtonian\VS>"C:\Program Files\NVIDIA GPU Computing Toolkit\CUDA\v9.2\bin\nvcc.exe" -gencode=arch=compute_52,code=\"sm_52,compute_52\" --use-local-env -ccbin "E:\VS2015\VC\bin\x86_amd64" -x cu   -I"C:\Program Files\NVIDIA GPU Computing Toolkit\CUDA\v9.2\include"  -G   --keep-dir x64\Debug -maxrregcount=0  --machine 64 --compile -cudart static -use_fast_math -Xcompiler "/wd 4267" -g   -D_WITHGPU -DWIN32 -D_CONSOLE -D_VC80_UPGRADE=0x0710 -D_MBCS -Xcompiler "/EHsc /W3 /nologo /Od /FdIntermediate/DualSPHysics_Debug_x64/vc140.pdb /FS /Zi /RTC1 /MTd " -o Intermediate/DualSPHysics_Debug_x64/JSphShifting_ker.cu.obj "C:\Users\Zhitian Qiao\Desktop\DualSPHysics-master\src_mphase\DSPH_v5.0_NNewtonian\source\JSphShifting_ker.cu" 
  
  C:\Users\Zhitian Qiao\Desktop\DualSPHysics-master\src_mphase\DSPH_v5.0_NNewtonian\VS>"C:\Program Files\NVIDIA GPU Computing Toolkit\CUDA\v9.2\bin\nvcc.exe" -gencode=arch=compute_52,code=\"sm_52,compute_52\" --use-local-env -ccbin "E:\VS2015\VC\bin\x86_amd64" -x cu   -I"C:\Program Files\NVIDIA GPU Computing Toolkit\CUDA\v9.2\include"  -G   --keep-dir x64\Debug -maxrregcount=0  --machine 64 --compile -cudart static -use_fast_math -Xcompiler "/wd 4267" -g   -D_WITHGPU -DWIN32 -D_CONSOLE -D_VC80_UPGRADE=0x0710 -D_MBCS -Xcompiler "/EHsc /W3 /nologo /Od /FdIntermediate/DualSPHysics_Debug_x64/vc140.pdb /FS /Zi /RTC1 /MTd " -o Intermediate/DualSPHysics_Debug_x64/FunctionsMath_iker.h.obj "C:\Users\Zhitian Qiao\Desktop\DualSPHysics-master\src_mphase\DSPH_v5.0_NNewtonian\source\FunctionsMath_iker.h" 
  
  C:\Users\Zhitian Qiao\Desktop\DualSPHysics-master\src_mphase\DSPH_v5.0_NNewtonian\VS>"C:\Program Files\NVIDIA GPU Computing Toolkit\CUDA\v9.2\bin\nvcc.exe" -gencode=arch=compute_52,code=\"sm_52,compute_52\" --use-local-env -ccbin "E:\VS2015\VC\bin\x86_amd64" -x cu   -I"C:\Program Files\NVIDIA GPU Computing Toolkit\CUDA\v9.2\include"  -G   --keep-dir x64\Debug -maxrregcount=0  --machine 64 --compile -cudart static -use_fast_math -Xcompiler "/wd 4267" -g   -D_WITHGPU -DWIN32 -D_CONSOLE -D_VC80_UPGRADE=0x0710 -D_MBCS -Xcompiler "/EHsc /W3 /nologo /Od /FdIntermediate/DualSPHysics_Debug_x64/vc140.pdb /FS /Zi /RTC1 /MTd " -o Intermediate/DualSPHysics_Debug_x64/JDsPips_ker.cu.obj "C:\Users\Zhitian Qiao\Desktop\DualSPHysics-master\src_mphase\DSPH_v5.0_NNewtonian\source\JDsPips_ker.cu" 
  
  C:\Users\Zhitian Qiao\Desktop\DualSPHysics-master\src_mphase\DSPH_v5.0_NNewtonian\VS>"C:\Program Files\NVIDIA GPU Computing Toolkit\CUDA\v9.2\bin\nvcc.exe" -gencode=arch=compute_52,code=\"sm_52,compute_52\" --use-local-env -ccbin "E:\VS2015\VC\bin\x86_amd64" -x cu   -I"C:\Program Files\NVIDIA GPU Computing Toolkit\CUDA\v9.2\include"  -G   --keep-dir x64\Debug -maxrregcount=0  --machine 64 --compile -cudart static -use_fast_math -Xcompiler "/wd 4267" -g   -D_WITHGPU -DWIN32 -D_CONSOLE -D_VC80_UPGRADE=0x0710 -D_MBCS -Xcompiler "/EHsc /W3 /nologo /Od /FdIntermediate/DualSPHysics_Debug_x64/vc140.pdb /FS /Zi /RTC1 /MTd " -o Intermediate/DualSPHysics_Debug_x64/JRelaxZone_ker.cu.obj "C:\Users\Zhitian Qiao\Desktop\DualSPHysics-master\src_mphase\DSPH_v5.0_NNewtonian\source\JRelaxZone_ker.cu" 
  
  C:\Users\Zhitian Qiao\Desktop\DualSPHysics-master\src_mphase\DSPH_v5.0_NNewtonian\VS>"C:\Program Files\NVIDIA GPU Computing Toolkit\CUDA\v9.2\bin\nvcc.exe" -gencode=arch=compute_52,code=\"sm_52,compute_52\" --use-local-env -ccbin "E:\VS2015\VC\bin\x86_amd64" -x cu   -I"C:\Program Files\NVIDIA GPU Computing Toolkit\CUDA\v9.2\include"  -G   --keep-dir x64\Debug -maxrregcount=0  --machine 64 --compile -cudart static -use_fast_math -Xcompiler "/wd 4267" -g   -D_WITHGPU -DWIN32 -D_CONSOLE -D_VC80_UPGRADE=0x0710 -D_MBCS -Xcompiler "/EHsc /W3 /nologo /Od /FdIntermediate/DualSPHysics_Debug_x64/vc140.pdb /FS /Zi /RTC1 /MTd " -o Intermediate/DualSPHysics_Debug_x64/JSphGpuSimple_ker.cu.obj "C:\Users\Zhitian Qiao\Desktop\DualSPHysics-master\src_mphase\DSPH_v5.0_NNewtonian\source\JSphGpuSimple_ker.cu" 
  
  C:\Users\Zhitian Qiao\Desktop\DualSPHysics-master\src_mphase\DSPH_v5.0_NNewtonian\VS>"C:\Program Files\NVIDIA GPU Computing Toolkit\CUDA\v9.2\bin\nvcc.exe" -gencode=arch=compute_52,code=\"sm_52,compute_52\" --use-local-env -ccbin "E:\VS2015\VC\bin\x86_amd64" -x cu   -I"C:\Program Files\NVIDIA GPU Computing Toolkit\CUDA\v9.2\include"  -G   --keep-dir x64\Debug -maxrregcount=0  --machine 64 --compile -cudart static -use_fast_math -Xcompiler "/wd 4267" -g   -D_WITHGPU -DWIN32 -D_CONSOLE -D_VC80_UPGRADE=0x0710 -D_MBCS -Xcompiler "/EHsc /W3 /nologo /Od /FdIntermediate/DualSPHysics_Debug_x64/vc140.pdb /FS /Zi /RTC1 /MTd " -o Intermediate/DualSPHysics_Debug_x64/JWaveOrder2_ker.cu.obj "C:\Users\Zhitian Qiao\Desktop\DualSPHysics-master\src_mphase\DSPH_v5.0_NNewtonian\source\JWaveOrder2_ker.cu" 
  
  
  C:\Users\Zhitian Qiao\Desktop\DualSPHysics-master\src_mphase\DSPH_v5.0_NNewtonian\VS>"C:\Program Files\NVIDIA GPU Computing Toolkit\CUDA\v9.2\bin\nvcc.exe" -gencode=arch=compute_52,code=\"sm_52,compute_52\" --use-local-env -ccbin "E:\VS2015\VC\bin\x86_amd64" -x cu   -I"C:\Program Files\NVIDIA GPU Computing Toolkit\CUDA\v9.2\include"  -G   --keep-dir x64\Debug -maxrregcount=0  --machine 64 --compile -cudart static -use_fast_math -Xcompiler "/wd 4267" -g   -D_WITHGPU -DWIN32 -D_CONSOLE -D_VC80_UPGRADE=0x0710 -D_MBCS -Xcompiler "/EHsc /W3 /nologo /Od /FdIntermediate/DualSPHysics_Debug_x64/vc140.pdb /FS /Zi /RTC1 /MTd " -o Intermediate/DualSPHysics_Debug_x64/JDsGauge_ker.cu.obj "C:\Users\Zhitian Qiao\Desktop\DualSPHysics-master\src_mphase\DSPH_v5.0_NNewtonian\source\JDsGauge_ker.cu" 
  C:\Users\Zhitian Qiao\Desktop\DualSPHysics-master\src_mphase\DSPH_v5.0_NNewtonian\VS>"C:\Program Files\NVIDIA GPU Computing Toolkit\CUDA\v9.2\bin\nvcc.exe" -gencode=arch=compute_52,code=\"sm_52,compute_52\" --use-local-env -ccbin "E:\VS2015\VC\bin\x86_amd64" -x cu   -I"C:\Program Files\NVIDIA GPU Computing Toolkit\CUDA\v9.2\include"  -G   --keep-dir x64\Debug -maxrregcount=0  --machine 64 --compile -cudart static -use_fast_math -Xcompiler "/wd 4267" -g   -D_WITHGPU -DWIN32 -D_CONSOLE -D_VC80_UPGRADE=0x0710 -D_MBCS -Xcompiler "/EHsc /W3 /nologo /Od /FdIntermediate/DualSPHysics_Debug_x64/vc140.pdb /FS /Zi /RTC1 /MTd " -o Intermediate/DualSPHysics_Debug_x64/JCellDivGpuSingle_ker.cu.obj "C:\Users\Zhitian Qiao\Desktop\DualSPHysics-master\src_mphase\DSPH_v5.0_NNewtonian\source\JCellDivGpuSingle_ker.cu" 
  
  C:\Users\Zhitian Qiao\Desktop\DualSPHysics-master\src_mphase\DSPH_v5.0_NNewtonian\VS>"C:\Program Files\NVIDIA GPU Computing Toolkit\CUDA\v9.2\bin\nvcc.exe" -gencode=arch=compute_52,code=\"sm_52,compute_52\" --use-local-env -ccbin "E:\VS2015\VC\bin\x86_amd64" -x cu   -I"C:\Program Files\NVIDIA GPU Computing Toolkit\CUDA\v9.2\include"  -G   --keep-dir x64\Debug -maxrregcount=0  --machine 64 --compile -cudart static -use_fast_math -Xcompiler "/wd 4267" -g   -D_WITHGPU -DWIN32 -D_CONSOLE -D_VC80_UPGRADE=0x0710 -D_MBCS -Xcompiler "/EHsc /W3 /nologo /Od /FdIntermediate/DualSPHysics_Debug_x64/vc140.pdb /FS /Zi /RTC1 /MTd " -o Intermediate/DualSPHysics_Debug_x64/JReduSum_ker.cu.obj "C:\Users\Zhitian Qiao\Desktop\DualSPHysics-master\src_mphase\DSPH_v5.0_NNewtonian\source\JReduSum_ker.cu" 
  
  C:\Users\Zhitian Qiao\Desktop\DualSPHysics-master\src_mphase\DSPH_v5.0_NNewtonian\VS>"C:\Program Files\NVIDIA GPU Computing Toolkit\CUDA\v9.2\bin\nvcc.exe" -gencode=arch=compute_52,code=\"sm_52,compute_52\" --use-local-env -ccbin "E:\VS2015\VC\bin\x86_amd64" -x cu   -I"C:\Program Files\NVIDIA GPU Computing Toolkit\CUDA\v9.2\include"  -G   --keep-dir x64\Debug -maxrregcount=0  --machine 64 --compile -cudart static -use_fast_math -Xcompiler "/wd 4267" -g   -D_WITHGPU -DWIN32 -D_CONSOLE -D_VC80_UPGRADE=0x0710 -D_MBCS -Xcompiler "/EHsc /W3 /nologo /Od /FdIntermediate/DualSPHysics_Debug_x64/vc140.pdb /FS /Zi /RTC1 /MTd " -o Intermediate/DualSPHysics_Debug_x64/JDsAccInput_ker.cu.obj "C:\Users\Zhitian Qiao\Desktop\DualSPHysics-master\src_mphase\DSPH_v5.0_NNewtonian\source\JDsAccInput_ker.cu" 
  
  C:\Users\Zhitian Qiao\Desktop\DualSPHysics-master\src_mphase\DSPH_v5.0_NNewtonian\VS>"C:\Program Files\NVIDIA GPU Computing Toolkit\CUDA\v9.2\bin\nvcc.exe" -gencode=arch=compute_52,code=\"sm_52,compute_52\" --use-local-env -ccbin "E:\VS2015\VC\bin\x86_amd64" -x cu   -I"C:\Program Files\NVIDIA GPU Computing Toolkit\CUDA\v9.2\include"  -G   --keep-dir x64\Debug -maxrregcount=0  --machine 64 --compile -cudart static -use_fast_math -Xcompiler "/wd 4267" -g   -D_WITHGPU -DWIN32 -D_CONSOLE -D_VC80_UPGRADE=0x0710 -D_MBCS -Xcompiler "/EHsc /W3 /nologo /Od /FdIntermediate/DualSPHysics_Debug_x64/vc140.pdb /FS /Zi /RTC1 /MTd " -o Intermediate/DualSPHysics_Debug_x64/JSphGpu_ker.cu.obj "C:\Users\Zhitian Qiao\Desktop\DualSPHysics-master\src_mphase\DSPH_v5.0_NNewtonian\source\JSphGpu_ker.cu" 
  FunctionsGeo3d_iker.h
  FunctionsMath_iker.h
  JSphShifting_ker.cu
  JReduSum_ker.cu
  JWaveOrder2_ker.cu
  JDsAccInput_ker.cu
  JDsPips_ker.cu
  JDsGauge_ker.cu
  JCellDivGpuSingle_ker.cu
  JSphGpuSimple_ker.cu
  JRelaxZone_ker.cu
  JCellDivGpu_ker.cu
  JSphGpu_ker.cu
  main.cpp
  DualSPHysics5Re.vcxproj -> C:\Users\Zhitian Qiao\Desktop\DualSPHysics-master\src_mphase\DSPH_v5.0_NNewtonian\VS\../../../bin/windows/DSNNewtonian\DualSPHysics5.0_win64_debug.exe
  DualSPHysics5Re.vcxproj -> ../../../bin/windows/DSNNewtonian\DualSPHysics5.0_win64_debug.pdb (Full PDB)
