Identity=..\source\JRelaxZone_ker.cu
AdditionalCompilerOptions=
AdditionalCompilerOptions=
AdditionalDependencies=
AdditionalDeps=
AdditionalLibraryDirectories=
AdditionalOptions=-use_fast_math -Xcompiler "/wd 4267" 
AdditionalOptions=-use_fast_math -Xcompiler "/wd 4267" 
CodeGeneration=compute_52,sm_52
CodeGeneration=compute_52,sm_52
CompileOut=Intermediate/DualSPHysics_Debug_x64/JRelaxZone_ker.cu.obj
CudaRuntime=Static
CudaToolkitCustomDir=
Defines=;_WITHGPU;WIN32;_CONSOLE;_VC80_UPGRADE=0x0710;_MBCS;
Emulation=false
FastMath=false
GenerateLineInfo=false
GenerateRelocatableDeviceCode=false
GPUDebugInfo=true
GPUDebugInfo=true
HostDebugInfo=true
Include=
Inputs=
InterleaveSourceInPTX=false
Keep=false
KeepDir=x64\Debug
LinkOut=
MaxRegCount=0
NvccCompilation=compile
NvccPath=
Optimization=Od
Optimization=Od
PerformDeviceLink=
ProgramDataBaseFileName=Intermediate/DualSPHysics_Debug_x64/vc140.pdb
PtxAsOptionV=false
RequiredIncludes=
Runtime=MTd
Runtime=MTd
RuntimeChecks=RTC1
RuntimeChecks=RTC1
TargetMachinePlatform=64
TargetMachinePlatform=64
TypeInfo=
TypeInfo=
UseHostDefines=true
UseHostInclude=false
UseHostLibraryDependencies=
UseHostLibraryDirectories=
Warning=W3
Warning=W3
