Identity=..\source\JSphGpu_InOut_ker.cu
AdditionalCompilerOptions=
AdditionalCompilerOptions=
AdditionalDependencies=
AdditionalDeps=
AdditionalLibraryDirectories=
AdditionalOptions=
AdditionalOptions=
CodeGeneration=compute_30,sm_30
CodeGeneration=compute_30,sm_30
CompileOut=Intermediate/DualSPHysics_DebugCPU_x64/JSphGpu_InOut_ker.cu.obj
CudaRuntime=Static
CudaToolkitCustomDir=
Defines=;WIN32;_CONSOLE;_VC80_UPGRADE=0x0710;_MBCS;
Emulation=false
FastMath=false
GenerateLineInfo=false
GenerateRelocatableDeviceCode=false
GPUDebugInfo=false
GPUDebugInfo=false
HostDebugInfo=false
Include=;;C:\Program Files\NVIDIA GPU Computing Toolkit\CUDA\v9.2\include
Inputs=
InterleaveSourceInPTX=false
Keep=false
KeepDir=x64\DebugCPU
LinkOut=
MaxRegCount=0
NvccCompilation=compile
NvccPath=
Optimization=Od
Optimization=Od
PerformDeviceLink=
ProgramDataBaseFileName=Intermediate/DualSPHysics_DebugCPU_x64/vc140.pdb
PtxAsOptionV=false
RequiredIncludes=
Runtime=MTd
Runtime=MTd
RuntimeChecks=RTC1
RuntimeChecks=RTC1
TargetMachinePlatform=64
TargetMachinePlatform=64
TypeInfo=
TypeInfo=
UseHostDefines=true
UseHostInclude=true
UseHostLibraryDependencies=
UseHostLibraryDirectories=
Warning=W3
Warning=W3
