PlatformToolSet=v142:VCToolArchitecture=Native32Bit:VCToolsVersion=14.29.30133:TargetPlatformVersion=10.0.19041.0:
DebugGPU|x64|C:\Users\Zhitian Qiao\Desktop\DualSPHysics-master\src_mphase\DSPH_v5.0_NNewtonian\VS\|
